/*---------------------------------------------------------------------------*\
  =========                 |
  \\      /  F ield         | OpenFOAM: The Open Source CFD Toolbox
   \\    /   O peration     | Website:  https://openfoam.org
    \\  /    A nd           | Version:  12
     \\/     M anipulation  |
\*---------------------------------------------------------------------------*/
Build  : 12-86e126a7bc4d
Exec   : foamRun -solver incompressibleFluid -parallel
Date   : Apr 11 2025
Time   : 09:02:49
Host   : "mattia-System-Product-Name"
PID    : 6885
I/O    : uncollated
Case   : /home/mattia/OpenFOAM/mattia-12/run/Tirocinio_2
nProcs : 12
Slaves : 
11
(
"mattia-System-Product-Name.6886"
"mattia-System-Product-Name.6887"
"mattia-System-Product-Name.6888"
"mattia-System-Product-Name.6889"
"mattia-System-Product-Name.6890"
"mattia-System-Product-Name.6891"
"mattia-System-Product-Name.6892"
"mattia-System-Product-Name.6893"
"mattia-System-Product-Name.6894"
"mattia-System-Product-Name.6895"
"mattia-System-Product-Name.6896"
)

Pstream initialised with:
    floatTransfer      : false
    nProcsSimpleSum    : 0
    commsType          : nonBlocking
    polling iterations : 0
sigFpe : Enabling floating point exception trapping (FOAM_SIGFPE).
fileModificationChecking : Monitoring run-time modified files using timeStampMaster (fileModificationSkew 10)
allowSystemOperations : Allowing user-supplied system call operations

// * * * * * * * * * * * * * * * * * * * * * * * * * * * * * * * * * * * * * //
Create time

Create mesh for time = 0

Selecting solver incompressibleFluid
Selecting viscosity model Newtonian
Selecting turbulence model type laminar
Selecting laminar stress model Stokes
No MRF models present

Courant Number mean: 0.000807690974 max: 0.2272727273

PIMPLE: Convergence criteria found
        U: tolerance 1e-05
        p: tolerance 1e-06


PIMPLE: No corrector convergence criteria found
        Calculations will do 10 corrections


PIMPLE: Operating solver in transient mode with 10 outer correctors



Starting time loop

Courant Number mean: 0.000807690974 max: 0.2272727273
Time = 0.025s

PIMPLE: Iteration 1
DILUPBiCGStab:  Solving for Ux, Initial residual = 1, Final residual = 0.0004113906523, No Iterations 1
DILUPBiCGStab:  Solving for Uy, Initial residual = 0.9998947815, Final residual = 0.006940278427, No Iterations 1
GAMG:  Solving for p, Initial residual = 1, Final residual = 8.576196158e-07, No Iterations 51
GAMG:  Solving for p, Initial residual = 0.001954661119, Final residual = 1.927981488e-09, No Iterations 36
time step continuity errors : sum local = 1.674405413e-09, global = -9.242021273e-12
GAMG:  Solving for p, Initial residual = 0.005250372318, Final residual = 4.616591916e-09, No Iterations 50
GAMG:  Solving for p, Initial residual = 0.001405977523, Final residual = 8.104148711e-11, No Iterations 46
time step continuity errors : sum local = 7.032215627e-11, global = -4.032844681e-13
PIMPLE: Iteration 2
DILUPBiCGStab:  Solving for Ux, Initial residual = 0.117399002, Final residual = 0.0005949902472, No Iterations 1
DILUPBiCGStab:  Solving for Uy, Initial residual = 0.0555981684, Final residual = 0.0003707506196, No Iterations 1
GAMG:  Solving for p, Initial residual = 0.01038656317, Final residual = 9.272714681e-09, No Iterations 49
GAMG:  Solving for p, Initial residual = 0.001315471471, Final residual = 1.033449891e-09, No Iterations 32
time step continuity errors : sum local = 7.924191923e-10, global = -2.978461837e-12
GAMG:  Solving for p, Initial residual = 0.003459257138, Final residual = 3.261933055e-09, No Iterations 48
GAMG:  Solving for p, Initial residual = 0.0009107046887, Final residual = 9.113551306e-11, No Iterations 43
time step continuity errors : sum local = 6.755594258e-11, global = -2.600054067e-13
PIMPLE: Iteration 3
DILUPBiCGStab:  Solving for Ux, Initial residual = 0.3762491001, Final residual = 0.001865993261, No Iterations 1
DILUPBiCGStab:  Solving for Uy, Initial residual = 0.1213653979, Final residual = 0.0003948652915, No Iterations 1
GAMG:  Solving for p, Initial residual = 0.003735207416, Final residual = 3.212823618e-09, No Iterations 48
GAMG:  Solving for p, Initial residual = 0.0008066503015, Final residual = 6.817128533e-10, No Iterations 35
time step continuity errors : sum local = 4.556483212e-10, global = -1.866558202e-12
GAMG:  Solving for p, Initial residual = 0.002011141884, Final residual = 1.940301158e-09, No Iterations 47
GAMG:  Solving for p, Initial residual = 0.0005551554636, Final residual = 9.882922888e-11, No Iterations 44
time step continuity errors : sum local = 6.467293151e-11, global = -2.718194762e-13
PIMPLE: Iteration 4
DILUPBiCGStab:  Solving for Ux, Initial residual = 0.3101350804, Final residual = 0.001561909183, No Iterations 1
DILUPBiCGStab:  Solving for Uy, Initial residual = 0.06497299495, Final residual = 0.0002068866309, No Iterations 1
GAMG:  Solving for p, Initial residual = 0.002194901553, Final residual = 2.048462744e-09, No Iterations 45
GAMG:  Solving for p, Initial residual = 0.0004122304742, Final residual = 3.638312639e-10, No Iterations 42
time step continuity errors : sum local = 2.135768164e-10, global = -8.81941305e-13
GAMG:  Solving for p, Initial residual = 0.001360985318, Final residual = 1.159323257e-09, No Iterations 45
GAMG:  Solving for p, Initial residual = 0.0002833640103, Final residual = 8.321426847e-11, No Iterations 47
time step continuity errors : sum local = 4.83043293e-11, global = -2.078554397e-13
PIMPLE: Iteration 5
DILUPBiCGStab:  Solving for Ux, Initial residual = 0.2124459523, Final residual = 0.00109104572, No Iterations 1
DILUPBiCGStab:  Solving for Uy, Initial residual = 0.0261548448, Final residual = 9.197128853e-05, No Iterations 1
GAMG:  Solving for p, Initial residual = 0.001472121636, Final residual = 1.464262347e-09, No Iterations 41
GAMG:  Solving for p, Initial residual = 0.0002436021463, Final residual = 2.37518198e-10, No Iterations 44
time step continuity errors : sum local = 1.275949381e-10, global = -5.02991671e-13
GAMG:  Solving for p, Initial residual = 0.0009670916575, Final residual = 8.457597804e-10, No Iterations 41
GAMG:  Solving for p, Initial residual = 0.0001645568947, Final residual = 9.626038225e-11, No Iterations 46
time step continuity errors : sum local = 5.14623362e-11, global = -2.057607685e-13
PIMPLE: Iteration 6
DILUPBiCGStab:  Solving for Ux, Initial residual = 0.1257620944, Final residual = 0.0006556214459, No Iterations 1
DILUPBiCGStab:  Solving for Uy, Initial residual = 0.02879179705, Final residual = 7.354856879e-05, No Iterations 1
GAMG:  Solving for p, Initial residual = 0.001009964496, Final residual = 7.929519608e-10, No Iterations 32
GAMG:  Solving for p, Initial residual = 0.000164619272, Final residual = 1.573438837e-10, No Iterations 44
time step continuity errors : sum local = 8.04970712e-11, global = -2.948008919e-13
GAMG:  Solving for p, Initial residual = 0.0006810358491, Final residual = 5.892957368e-10, No Iterations 31
GAMG:  Solving for p, Initial residual = 0.0001105128603, Final residual = 9.850310075e-11, No Iterations 44
time step continuity errors : sum local = 5.031417395e-11, global = -1.81075584e-13
PIMPLE: Iteration 7
DILUPBiCGStab:  Solving for Ux, Initial residual = 0.06366300745, Final residual = 0.0003453237522, No Iterations 1
DILUPBiCGStab:  Solving for Uy, Initial residual = 0.03320953371, Final residual = 7.414215858e-05, No Iterations 1
GAMG:  Solving for p, Initial residual = 0.0007050114822, Final residual = 6.133936378e-10, No Iterations 41
GAMG:  Solving for p, Initial residual = 0.0001018154052, Final residual = 8.879239549e-11, No Iterations 43
time step continuity errors : sum local = 4.442071519e-11, global = -1.437070634e-13
GAMG:  Solving for p, Initial residual = 0.0004740709894, Final residual = 3.931053894e-10, No Iterations 41
GAMG:  Solving for p, Initial residual = 6.858207769e-05, Final residual = 8.976607526e-11, No Iterations 41
time step continuity errors : sum local = 4.489382007e-11, global = -1.411575743e-13
PIMPLE: Iteration 8
DILUPBiCGStab:  Solving for Ux, Initial residual = 0.02698156778, Final residual = 0.0001791510375, No Iterations 1
DILUPBiCGStab:  Solving for Uy, Initial residual = 0.02829305964, Final residual = 6.333752739e-05, No Iterations 1
GAMG:  Solving for p, Initial residual = 0.0004914023836, Final residual = 4.182672452e-10, No Iterations 43
GAMG:  Solving for p, Initial residual = 6.005576647e-05, Final residual = 8.916627779e-11, No Iterations 33
time step continuity errors : sum local = 4.422858537e-11, global = 1.527356094e-13
GAMG:  Solving for p, Initial residual = 0.0003268403228, Final residual = 3.240490251e-10, No Iterations 42
GAMG:  Solving for p, Initial residual = 4.0533303e-05, Final residual = 8.630609813e-11, No Iterations 31
time step continuity errors : sum local = 4.281329969e-11, global = 1.485501976e-13
PIMPLE: Iteration 9
DILUPBiCGStab:  Solving for Ux, Initial residual = 0.009264465164, Final residual = 1.017609442e-05, No Iterations 1
DILUPBiCGStab:  Solving for Uy, Initial residual = 0.01921140474, Final residual = 4.853810019e-05, No Iterations 1
GAMG:  Solving for p, Initial residual = 0.0003405895457, Final residual = 3.398523283e-10, No Iterations 42
GAMG:  Solving for p, Initial residual = 3.979008779e-05, Final residual = 8.758918208e-11, No Iterations 36
time step continuity errors : sum local = 4.333636627e-11, global = 1.467491235e-13
GAMG:  Solving for p, Initial residual = 0.0002253493379, Final residual = 2.111496363e-10, No Iterations 42
GAMG:  Solving for p, Initial residual = 2.631539341e-05, Final residual = 8.343700755e-11, No Iterations 34
time step continuity errors : sum local = 4.128842852e-11, global = 1.288192159e-13
PIMPLE: Iteration 10
DILUPBiCGStab:  Solving for Ux, Initial residual = 0.00361591623, Final residual = 1.717589503e-07, No Iterations 3
DILUPBiCGStab:  Solving for Uy, Initial residual = 0.01159025382, Final residual = 3.696086922e-07, No Iterations 3
GAMG:  Solving for p, Initial residual = 0.0002332934088, Final residual = 2.11977794e-10, No Iterations 41
GAMG:  Solving for p, Initial residual = 2.869808617e-05, Final residual = 9.021295375e-11, No Iterations 35
time step continuity errors : sum local = 4.461912838e-11, global = 1.145079999e-13
GAMG:  Solving for p, Initial residual = 0.0001552383037, Final residual = 1.344147574e-10, No Iterations 41
GAMG:  Solving for p, Initial residual = 1.911644165e-05, Final residual = 9.450104216e-11, No Iterations 33
time step continuity errors : sum local = 4.674562679e-11, global = 1.157375423e-13, cumulative = 1.157375423e-13
ExecutionTime = 1.666668 s  ClockTime = 2 s

Courant Number mean: 0.3997498288 max: 307.3767779
Time = 0.05s

PIMPLE: Iteration 1
DILUPBiCGStab:  Solving for Ux, Initial residual = 0.8547407485, Final residual = 0.003381337684, No Iterations 1
DILUPBiCGStab:  Solving for Uy, Initial residual = 0.2355050331, Final residual = 0.0001554798764, No Iterations 1
GAMG:  Solving for p, Initial residual = 0.004122029471, Final residual = 4.072850604e-09, No Iterations 48
GAMG:  Solving for p, Initial residual = 0.004009037957, Final residual = 3.001394935e-09, No Iterations 33
time step continuity errors : sum local = 8.151520896e-10, global = 3.791222106e-12
GAMG:  Solving for p, Initial residual = 0.005187583434, Final residual = 4.931263851e-09, No Iterations 48
GAMG:  Solving for p, Initial residual = 0.003047162975, Final residual = 9.964034375e-11, No Iterations 49
time step continuity errors : sum local = 2.388084971e-11, global = 1.028757916e-13
PIMPLE: Iteration 2
DILUPBiCGStab:  Solving for Ux, Initial residual = 0.3651573019, Final residual = 0.001532531811, No Iterations 1
DILUPBiCGStab:  Solving for Uy, Initial residual = 0.04524915553, Final residual = 5.467965184e-05, No Iterations 1
GAMG:  Solving for p, Initial residual = 0.006676054816, Final residual = 6.252433375e-09, No Iterations 48
GAMG:  Solving for p, Initial residual = 0.002435851771, Final residual = 2.431754821e-09, No Iterations 33
time step continuity errors : sum local = 1.008357728e-09, global = 4.420394237e-12
GAMG:  Solving for p, Initial residual = 0.01874491755, Final residual = 1.597985368e-08, No Iterations 48
GAMG:  Solving for p, Initial residual = 0.001756581538, Final residual = 9.734264904e-11, No Iterations 48
time step continuity errors : sum local = 3.758649157e-11, global = 1.636057982e-13
PIMPLE: Iteration 3
DILUPBiCGStab:  Solving for Ux, Initial residual = 0.08550926632, Final residual = 0.0003880291461, No Iterations 1
DILUPBiCGStab:  Solving for Uy, Initial residual = 0.03940064922, Final residual = 5.811722208e-05, No Iterations 1
GAMG:  Solving for p, Initial residual = 0.01702283358, Final residual = 1.375403241e-08, No Iterations 48
GAMG:  Solving for p, Initial residual = 0.001794585467, Final residual = 1.515849917e-09, No Iterations 35
time step continuity errors : sum local = 5.533007182e-10, global = 2.427686351e-12
GAMG:  Solving for p, Initial residual = 0.01703578966, Final residual = 1.515452735e-08, No Iterations 47
GAMG:  Solving for p, Initial residual = 0.001272356502, Final residual = 8.947197989e-11, No Iterations 48
time step continuity errors : sum local = 3.104331761e-11, global = 1.384838672e-13
PIMPLE: Iteration 4
DILUPBiCGStab:  Solving for Ux, Initial residual = 0.4038488086, Final residual = 0.001816343841, No Iterations 1
DILUPBiCGStab:  Solving for Uy, Initial residual = 0.05687356253, Final residual = 8.124958358e-05, No Iterations 1
GAMG:  Solving for p, Initial residual = 0.01773531362, Final residual = 1.649081043e-08, No Iterations 46
GAMG:  Solving for p, Initial residual = 0.001221723741, Final residual = 1.019788869e-09, No Iterations 38
time step continuity errors : sum local = 2.925234205e-10, global = 1.248528117e-12
GAMG:  Solving for p, Initial residual = 0.005341017483, Final residual = 4.499241821e-09, No Iterations 46
GAMG:  Solving for p, Initial residual = 0.0008589493923, Final residual = 9.654117258e-11, No Iterations 48
time step continuity errors : sum local = 2.676919641e-11, global = 1.199006023e-13
PIMPLE: Iteration 5
DILUPBiCGStab:  Solving for Ux, Initial residual = 0.4232512288, Final residual = 0.001965338887, No Iterations 1
DILUPBiCGStab:  Solving for Uy, Initial residual = 0.03720347516, Final residual = 7.720714148e-05, No Iterations 1
GAMG:  Solving for p, Initial residual = 0.005660756288, Final residual = 5.484936791e-09, No Iterations 43
GAMG:  Solving for p, Initial residual = 0.0007320546578, Final residual = 6.702455532e-10, No Iterations 41
time step continuity errors : sum local = 1.528114178e-10, global = 5.997454701e-13
GAMG:  Solving for p, Initial residual = 0.003127614259, Final residual = 2.721325467e-09, No Iterations 43
GAMG:  Solving for p, Initial residual = 0.0005115676444, Final residual = 8.176571436e-11, No Iterations 49
time step continuity errors : sum local = 1.82845849e-11, global = 7.886142576e-14
PIMPLE: Iteration 6
DILUPBiCGStab:  Solving for Ux, Initial residual = 0.2687072196, Final residual = 0.001279784309, No Iterations 1
DILUPBiCGStab:  Solving for Uy, Initial residual = 0.01995819708, Final residual = 6.394825806e-05, No Iterations 1
GAMG:  Solving for p, Initial residual = 0.003220022013, Final residual = 2.611057924e-09, No Iterations 38
GAMG:  Solving for p, Initial residual = 0.0004140211526, Final residual = 3.36915417e-10, No Iterations 44
time step continuity errors : sum local = 6.511916578e-11, global = 2.4185376e-13
GAMG:  Solving for p, Initial residual = 0.002047425756, Final residual = 1.788611321e-09, No Iterations 37
GAMG:  Solving for p, Initial residual = 0.0002886606439, Final residual = 9.359360884e-11, No Iterations 48
time step continuity errors : sum local = 1.793261398e-11, global = 6.969121051e-14
PIMPLE: Iteration 7
DILUPBiCGStab:  Solving for Ux, Initial residual = 0.1326805628, Final residual = 0.0006457145416, No Iterations 1
DILUPBiCGStab:  Solving for Uy, Initial residual = 0.02203676167, Final residual = 5.306830429e-05, No Iterations 1
GAMG:  Solving for p, Initial residual = 0.0021202128, Final residual = 2.118750226e-09, No Iterations 36
GAMG:  Solving for p, Initial residual = 0.0002486496275, Final residual = 2.067003824e-10, No Iterations 45
time step continuity errors : sum local = 3.634803063e-11, global = 1.30687e-13
GAMG:  Solving for p, Initial residual = 0.001425910383, Final residual = 1.185950599e-09, No Iterations 37
GAMG:  Solving for p, Initial residual = 0.000170515325, Final residual = 8.656648745e-11, No Iterations 47
time step continuity errors : sum local = 1.518046311e-11, global = 5.532683842e-14
PIMPLE: Iteration 8
DILUPBiCGStab:  Solving for Ux, Initial residual = 0.05611402174, Final residual = 0.0002838998794, No Iterations 1
DILUPBiCGStab:  Solving for Uy, Initial residual = 0.01998872359, Final residual = 3.788480729e-05, No Iterations 1
GAMG:  Solving for p, Initial residual = 0.001444367797, Final residual = 1.321351635e-09, No Iterations 42
GAMG:  Solving for p, Initial residual = 0.000162306748, Final residual = 1.581514387e-10, No Iterations 44
time step continuity errors : sum local = 2.661950205e-11, global = 9.640897047e-14
GAMG:  Solving for p, Initial residual = 0.0009847052529, Final residual = 8.60425348e-10, No Iterations 42
GAMG:  Solving for p, Initial residual = 0.0001102796621, Final residual = 8.104068028e-11, No Iterations 45
time step continuity errors : sum local = 1.363635175e-11, global = 4.940549467e-14
PIMPLE: Iteration 9
DILUPBiCGStab:  Solving for Ux, Initial residual = 0.02024189054, Final residual = 0.0001178345164, No Iterations 1
DILUPBiCGStab:  Solving for Uy, Initial residual = 0.01496965675, Final residual = 2.57249172e-05, No Iterations 1
GAMG:  Solving for p, Initial residual = 0.0009795691829, Final residual = 8.482313642e-10, No Iterations 43
GAMG:  Solving for p, Initial residual = 0.0001052627616, Final residual = 9.012921773e-11, No Iterations 41
time step continuity errors : sum local = 1.492686816e-11, global = -1.741190052e-14
GAMG:  Solving for p, Initial residual = 0.0006672551065, Final residual = 5.466171999e-10, No Iterations 43
GAMG:  Solving for p, Initial residual = 7.131523686e-05, Final residual = 8.923950437e-11, No Iterations 38
time step continuity errors : sum local = 1.47850069e-11, global = -6.083917242e-14
PIMPLE: Iteration 10
DILUPBiCGStab:  Solving for Ux, Initial residual = 0.005897134429, Final residual = 1.544915706e-07, No Iterations 2
DILUPBiCGStab:  Solving for Uy, Initial residual = 0.009916896835, Final residual = 3.730430766e-07, No Iterations 3
GAMG:  Solving for p, Initial residual = 0.0006639066797, Final residual = 6.138926204e-10, No Iterations 42
GAMG:  Solving for p, Initial residual = 7.282767457e-05, Final residual = 9.591656554e-11, No Iterations 36
time step continuity errors : sum local = 1.581979499e-11, global = -6.963590277e-14
GAMG:  Solving for p, Initial residual = 0.0004490158683, Final residual = 3.910990246e-10, No Iterations 42
GAMG:  Solving for p, Initial residual = 4.926238418e-05, Final residual = 9.765613347e-11, No Iterations 34
time step continuity errors : sum local = 1.61129122e-11, global = -6.363100685e-14, cumulative = 5.210653547e-14
ExecutionTime = 3.290644 s  ClockTime = 3 s

Courant Number mean: 0.3997788162 max: 327.3305731
Time = 0.075s

PIMPLE: Iteration 1
DILUPBiCGStab:  Solving for Ux, Initial residual = 0.9664105079, Final residual = 0.003828939922, No Iterations 1
DILUPBiCGStab:  Solving for Uy, Initial residual = 0.09262067485, Final residual = 6.223954865e-05, No Iterations 1
GAMG:  Solving for p, Initial residual = 0.003624597112, Final residual = 3.138023321e-09, No Iterations 48
GAMG:  Solving for p, Initial residual = 0.01025614096, Final residual = 7.278869438e-09, No Iterations 33
time step continuity errors : sum local = 1.978178901e-10, global = -1.043118143e-12
GAMG:  Solving for p, Initial residual = 0.003700717299, Final residual = 3.127312023e-09, No Iterations 48
GAMG:  Solving for p, Initial residual = 0.009722931599, Final residual = 9.080015344e-11, No Iterations 54
time step continuity errors : sum local = 1.742978899e-12, global = -7.510733698e-15
PIMPLE: Iteration 2
DILUPBiCGStab:  Solving for Ux, Initial residual = 0.7658624267, Final residual = 0.003199975989, No Iterations 1
DILUPBiCGStab:  Solving for Uy, Initial residual = 0.02090743746, Final residual = 2.494029023e-05, No Iterations 1
GAMG:  Solving for p, Initial residual = 0.005027069244, Final residual = 4.321238369e-09, No Iterations 48
GAMG:  Solving for p, Initial residual = 0.004084888994, Final residual = 4.039361658e-09, No Iterations 32
time step continuity errors : sum local = 2.548901228e-10, global = -1.095236203e-12
GAMG:  Solving for p, Initial residual = 0.006528499344, Final residual = 5.283763318e-09, No Iterations 48
GAMG:  Solving for p, Initial residual = 0.003090970213, Final residual = 8.45533021e-11, No Iterations 50
time step continuity errors : sum local = 4.726109057e-12, global = -2.034086647e-14
PIMPLE: Iteration 3
DILUPBiCGStab:  Solving for Ux, Initial residual = 0.04924474685, Final residual = 0.000228000054, No Iterations 1
DILUPBiCGStab:  Solving for Uy, Initial residual = 0.01293674085, Final residual = 1.509363747e-05, No Iterations 1
GAMG:  Solving for p, Initial residual = 0.006455949607, Final residual = 6.13586954e-09, No Iterations 47
GAMG:  Solving for p, Initial residual = 0.00330717999, Final residual = 2.822476753e-09, No Iterations 34
time step continuity errors : sum local = 1.427815475e-10, global = -6.023725965e-13
GAMG:  Solving for p, Initial residual = 0.009898250258, Final residual = 8.747781598e-09, No Iterations 47
GAMG:  Solving for p, Initial residual = 0.00244961829, Final residual = 9.745261719e-11, No Iterations 50
time step continuity errors : sum local = 4.482074858e-12, global = -1.953496656e-14
PIMPLE: Iteration 4
DILUPBiCGStab:  Solving for Ux, Initial residual = 0.1116048884, Final residual = 0.0004983187033, No Iterations 1
DILUPBiCGStab:  Solving for Uy, Initial residual = 0.01370798701, Final residual = 1.399335388e-05, No Iterations 1
GAMG:  Solving for p, Initial residual = 0.008730042363, Final residual = 8.027137345e-09, No Iterations 46
GAMG:  Solving for p, Initial residual = 0.00291212818, Final residual = 2.783852199e-09, No Iterations 37
time step continuity errors : sum local = 8.59670703e-11, global = -3.360034213e-13
GAMG:  Solving for p, Initial residual = 0.01554593434, Final residual = 1.332932023e-08, No Iterations 46
GAMG:  Solving for p, Initial residual = 0.002145621047, Final residual = 9.193469138e-11, No Iterations 52
time step continuity errors : sum local = 2.614984086e-12, global = -1.156466817e-14
PIMPLE: Iteration 5
DILUPBiCGStab:  Solving for Ux, Initial residual = 0.08586519327, Final residual = 0.0003958539678, No Iterations 1
DILUPBiCGStab:  Solving for Uy, Initial residual = 0.007954976329, Final residual = 1.266770951e-05, No Iterations 1
GAMG:  Solving for p, Initial residual = 0.01278138212, Final residual = 1.175075805e-08, No Iterations 44
GAMG:  Solving for p, Initial residual = 0.002662187985, Final residual = 2.282849815e-09, No Iterations 41
time step continuity errors : sum local = 3.669268132e-11, global = -1.355904085e-13
GAMG:  Solving for p, Initial residual = 0.02765305693, Final residual = 2.370968472e-08, No Iterations 44
GAMG:  Solving for p, Initial residual = 0.001957173612, Final residual = 9.633561283e-11, No Iterations 54
time step continuity errors : sum local = 1.441908014e-12, global = -6.218019928e-15
PIMPLE: Iteration 6
DILUPBiCGStab:  Solving for Ux, Initial residual = 0.05215456301, Final residual = 0.0002475844737, No Iterations 1
DILUPBiCGStab:  Solving for Uy, Initial residual = 0.00450739114, Final residual = 1.198428859e-05, No Iterations 1
GAMG:  Solving for p, Initial residual = 0.02273761062, Final residual = 2.141612926e-08, No Iterations 39
GAMG:  Solving for p, Initial residual = 0.002673395572, Final residual = 2.636967321e-09, No Iterations 43
time step continuity errors : sum local = 1.948460141e-11, global = -6.867177581e-14
GAMG:  Solving for p, Initial residual = 0.07420829883, Final residual = 6.157628928e-08, No Iterations 39
GAMG:  Solving for p, Initial residual = 0.001951092471, Final residual = 8.144035748e-11, No Iterations 57
time step continuity errors : sum local = 5.672072736e-13, global = -2.31440294e-15
PIMPLE: Iteration 7
DILUPBiCGStab:  Solving for Ux, Initial residual = 0.02711985596, Final residual = 0.0001324942846, No Iterations 1
DILUPBiCGStab:  Solving for Uy, Initial residual = 0.004906681254, Final residual = 1.120695582e-05, No Iterations 1
GAMG:  Solving for p, Initial residual = 0.06653673191, Final residual = 5.599803953e-08, No Iterations 37
GAMG:  Solving for p, Initial residual = 0.003468011037, Final residual = 2.819178752e-09, No Iterations 45
time step continuity errors : sum local = 8.561133885e-12, global = -2.969603815e-14
GAMG:  Solving for p, Initial residual = 0.06421465517, Final residual = 5.718604661e-08, No Iterations 37
GAMG:  Solving for p, Initial residual = 0.002461479734, Final residual = 8.259003061e-11, No Iterations 59
time step continuity errors : sum local = 2.40634043e-13, global = -9.473703455e-16
PIMPLE: Iteration 8
DILUPBiCGStab:  Solving for Ux, Initial residual = 0.01219155191, Final residual = 6.260401104e-05, No Iterations 1
DILUPBiCGStab:  Solving for Uy, Initial residual = 0.004790714396, Final residual = 9.580924132e-06, No Iterations 1
GAMG:  Solving for p, Initial residual = 0.06988383789, Final residual = 5.927520199e-08, No Iterations 43
GAMG:  Solving for p, Initial residual = 0.006168473708, Final residual = 5.464163398e-09, No Iterations 44
time step continuity errors : sum local = 6.32567939e-12, global = -2.233707768e-14
GAMG:  Solving for p, Initial residual = 0.03840183164, Final residual = 3.148354688e-08, No Iterations 43
GAMG:  Solving for p, Initial residual = 0.00423532209, Final residual = 9.877256891e-11, No Iterations 60
time step continuity errors : sum local = 1.130421343e-13, global = -4.525001134e-16
PIMPLE: Iteration 9
DILUPBiCGStab:  Solving for Ux, Initial residual = 0.00461395962, Final residual = 2.809764333e-05, No Iterations 1
DILUPBiCGStab:  Solving for Uy, Initial residual = 0.003885746798, Final residual = 8.165637439e-06, No Iterations 1
GAMG:  Solving for p, Initial residual = 0.03914904382, Final residual = 3.321754759e-08, No Iterations 44
GAMG:  Solving for p, Initial residual = 0.01008676285, Final residual = 1.00300995e-08, No Iterations 39
time step continuity errors : sum local = 4.848196706e-12, global = 1.845483757e-14
GAMG:  Solving for p, Initial residual = 0.02976666381, Final residual = 2.419593055e-08, No Iterations 44
GAMG:  Solving for p, Initial residual = 0.006650495811, Final residual = 9.051570982e-11, No Iterations 57
time step continuity errors : sum local = 4.516614717e-14, global = 2.71058778e-16
PIMPLE: Iteration 10
DILUPBiCGStab:  Solving for Ux, Initial residual = 0.001392578423, Final residual = 4.388437892e-07, No Iterations 2
DILUPBiCGStab:  Solving for Uy, Initial residual = 0.002765737111, Final residual = 6.590960922e-07, No Iterations 2
GAMG:  Solving for p, Initial residual = 0.03024979411, Final residual = 2.836350119e-08, No Iterations 43
GAMG:  Solving for p, Initial residual = 0.009766517954, Final residual = 9.084443484e-09, No Iterations 38
time step continuity errors : sum local = 3.110400383e-12, global = 1.31035356e-14
GAMG:  Solving for p, Initial residual = 0.02417880626, Final residual = 2.165996507e-08, No Iterations 43
GAMG:  Solving for p, Initial residual = 0.006912602145, Final residual = 9.746219467e-11, No Iterations 57
time step continuity errors : sum local = 3.211832908e-14, global = 1.358146589e-16, cumulative = 5.224235013e-14
ExecutionTime = 5.022994 s  ClockTime = 5 s

Courant Number mean: 0.3998676276 max: 350.6990462
Time = 0.1s

PIMPLE: Iteration 1
DILUPBiCGStab:  Solving for Ux, Initial residual = 0.005899743988, Final residual = 5.292678666e-05, No Iterations 1
DILUPBiCGStab:  Solving for Uy, Initial residual = 0.01792058794, Final residual = 1.385778321e-05, No Iterations 1
GAMG:  Solving for p, Initial residual = 0.08205695871, Final residual = 7.677680897e-08, No Iterations 40
GAMG:  Solving for p, Initial residual = 0.01921364647, Final residual = 1.607463134e-08, No Iterations 37
time step continuity errors : sum local = 5.662258331e-12, global = 2.387255178e-14
GAMG:  Solving for p, Initial residual = 0.06894519726, Final residual = 6.101563453e-08, No Iterations 40
GAMG:  Solving for p, Initial residual = 0.01367165407, Final residual = 9.578444201e-11, No Iterations 59
time step continuity errors : sum local = 3.220656834e-14, global = 1.428043884e-16
PIMPLE: Iteration 2
DILUPBiCGStab:  Solving for Ux, Initial residual = 0.001957484909, Final residual = 1.369720315e-06, No Iterations 1
DILUPBiCGStab:  Solving for Uy, Initial residual = 0.007213566527, Final residual = 1.015125535e-05, No Iterations 1
GAMG:  Solving for p, Initial residual = 0.170456417, Final residual = 1.403922902e-07, No Iterations 39
GAMG:  Solving for p, Initial residual = 0.02192001377, Final residual = 1.998450384e-08, No Iterations 34
time step continuity errors : sum local = 7.584255748e-12, global = 2.822800256e-14
GAMG:  Solving for p, Initial residual = 0.1641248378, Final residual = 1.541356768e-07, No Iterations 38
GAMG:  Solving for p, Initial residual = 0.01578245426, Final residual = 9.579548309e-11, No Iterations 56
time step continuity errors : sum local = 3.491167699e-14, global = 1.278889638e-16
PIMPLE: Iteration 3
DILUPBiCGStab:  Solving for Ux, Initial residual = 0.0005233389722, Final residual = 8.508729909e-07, No Iterations 1
DILUPBiCGStab:  Solving for Uy, Initial residual = 0.003113441681, Final residual = 8.039074901e-06, No Iterations 1
GAMG:  Solving for p, Initial residual = 0.2125995869, Final residual = 2.087843543e-07, No Iterations 37
GAMG:  Solving for p, Initial residual = 0.02367145426, Final residual = 2.203394564e-08, No Iterations 33
time step continuity errors : sum local = 7.508035581e-12, global = 2.346236663e-14
GAMG:  Solving for p, Initial residual = 0.2041566329, Final residual = 1.869182298e-07, No Iterations 37
GAMG:  Solving for p, Initial residual = 0.01689826463, Final residual = 8.221846202e-11, No Iterations 55
time step continuity errors : sum local = 2.717526759e-14, global = 8.230137371e-17
PIMPLE: Iteration 4
DILUPBiCGStab:  Solving for Ux, Initial residual = 0.0004775510671, Final residual = 6.626316352e-07, No Iterations 1
DILUPBiCGStab:  Solving for Uy, Initial residual = 0.002049528541, Final residual = 6.880088985e-06, No Iterations 1
GAMG:  Solving for p, Initial residual = 0.2181096859, Final residual = 1.873467231e-07, No Iterations 36
GAMG:  Solving for p, Initial residual = 0.02210814422, Final residual = 1.730620188e-08, No Iterations 34
time step continuity errors : sum local = 5.185842399e-12, global = 1.374541373e-14
GAMG:  Solving for p, Initial residual = 0.1423669927, Final residual = 1.167840223e-07, No Iterations 36
GAMG:  Solving for p, Initial residual = 0.01559698523, Final residual = 8.423955543e-11, No Iterations 55
time step continuity errors : sum local = 2.47450241e-14, global = 6.653915464e-17
PIMPLE: Iteration 5
DILUPBiCGStab:  Solving for Ux, Initial residual = 0.0004097232646, Final residual = 5.592055178e-07, No Iterations 1
DILUPBiCGStab:  Solving for Uy, Initial residual = 0.0016971254, Final residual = 5.990200518e-06, No Iterations 1
GAMG:  Solving for p, Initial residual = 0.1432442947, Final residual = 1.383503716e-07, No Iterations 33
GAMG:  Solving for p, Initial residual = 0.01719190308, Final residual = 1.695873965e-08, No Iterations 34
time step continuity errors : sum local = 4.612363372e-12, global = 1.104817156e-14
GAMG:  Solving for p, Initial residual = 0.09563244371, Final residual = 9.149636658e-08, No Iterations 33
GAMG:  Solving for p, Initial residual = 0.01202761527, Final residual = 8.644190575e-11, No Iterations 55
time step continuity errors : sum local = 2.325879368e-14, global = 6.041551922e-17
PIMPLE: Iteration 6
DILUPBiCGStab:  Solving for Ux, Initial residual = 0.0003052106673, Final residual = 4.53869888e-07, No Iterations 1
DILUPBiCGStab:  Solving for Uy, Initial residual = 0.001362378532, Final residual = 5.036971093e-06, No Iterations 1
GAMG:  Solving for p, Initial residual = 0.09318859482, Final residual = 8.889263991e-08, No Iterations 29
GAMG:  Solving for p, Initial residual = 0.0115664852, Final residual = 1.126684545e-08, No Iterations 35
time step continuity errors : sum local = 2.898806293e-12, global = 7.096266134e-15
GAMG:  Solving for p, Initial residual = 0.06409132321, Final residual = 5.177186673e-08, No Iterations 30
GAMG:  Solving for p, Initial residual = 0.008058520041, Final residual = 9.435440311e-11, No Iterations 54
time step continuity errors : sum local = 2.41501434e-14, global = 6.537784238e-17
PIMPLE: Iteration 7
DILUPBiCGStab:  Solving for Ux, Initial residual = 0.0002139753586, Final residual = 3.956806949e-07, No Iterations 1
DILUPBiCGStab:  Solving for Uy, Initial residual = 0.00108993504, Final residual = 4.465852794e-06, No Iterations 1
GAMG:  Solving for p, Initial residual = 0.06211916988, Final residual = 4.850031354e-08, No Iterations 24
GAMG:  Solving for p, Initial residual = 0.007829377967, Final residual = 6.342508096e-09, No Iterations 36
time step continuity errors : sum local = 1.594553648e-12, global = 4.365496885e-15
GAMG:  Solving for p, Initial residual = 0.04298332608, Final residual = 3.57039688e-08, No Iterations 24
GAMG:  Solving for p, Initial residual = 0.005460819106, Final residual = 8.467156234e-11, No Iterations 53
time step continuity errors : sum local = 2.122895789e-14, global = 6.800238156e-17
PIMPLE: Iteration 8
DILUPBiCGStab:  Solving for Ux, Initial residual = 0.0001495511618, Final residual = 4.175023028e-07, No Iterations 1
DILUPBiCGStab:  Solving for Uy, Initial residual = 0.0008983213387, Final residual = 4.270973343e-06, No Iterations 1
GAMG:  Solving for p, Initial residual = 0.0423036985, Final residual = 3.814824226e-08, No Iterations 28
GAMG:  Solving for p, Initial residual = 0.005948117858, Final residual = 5.11881357e-09, No Iterations 35
time step continuity errors : sum local = 1.281888395e-12, global = 4.166353737e-15
GAMG:  Solving for p, Initial residual = 0.02922409927, Final residual = 2.389719755e-08, No Iterations 28
GAMG:  Solving for p, Initial residual = 0.004171049192, Final residual = 9.000366288e-11, No Iterations 51
time step continuity errors : sum local = 2.249123864e-14, global = 9.021198996e-17
PIMPLE: Iteration 9
DILUPBiCGStab:  Solving for Ux, Initial residual = 0.000109593014, Final residual = 4.359488934e-07, No Iterations 1
DILUPBiCGStab:  Solving for Uy, Initial residual = 0.0007594612377, Final residual = 4.292759931e-06, No Iterations 1
GAMG:  Solving for p, Initial residual = 0.02911961522, Final residual = 2.622996985e-08, No Iterations 30
GAMG:  Solving for p, Initial residual = 0.004763020748, Final residual = 3.928476165e-09, No Iterations 34
time step continuity errors : sum local = 9.877639465e-13, global = 3.416920996e-15
GAMG:  Solving for p, Initial residual = 0.02015834746, Final residual = 1.704423049e-08, No Iterations 30
GAMG:  Solving for p, Initial residual = 0.003336866049, Final residual = 8.273421544e-11, No Iterations 50
time step continuity errors : sum local = 2.075479551e-14, global = 9.075783715e-17
PIMPLE: Iteration 10
DILUPBiCGStab:  Solving for Ux, Initial residual = 8.849172894e-05, Final residual = 4.571760757e-07, No Iterations 1
DILUPBiCGStab:  Solving for Uy, Initial residual = 0.0006544768169, Final residual = 1.065704345e-07, No Iterations 3
GAMG:  Solving for p, Initial residual = 0.02062065591, Final residual = 1.906511801e-08, No Iterations 31
GAMG:  Solving for p, Initial residual = 0.003653563683, Final residual = 3.054505865e-09, No Iterations 34
time step continuity errors : sum local = 7.721714805e-13, global = -5.62520705e-15
GAMG:  Solving for p, Initial residual = 0.01432413286, Final residual = 1.200061362e-08, No Iterations 31
GAMG:  Solving for p, Initial residual = 0.00255967949, Final residual = 9.292179995e-11, No Iterations 50
time step continuity errors : sum local = 2.343543083e-14, global = -1.968964206e-16, cumulative = 5.20454537e-14
ExecutionTime = 6.508549 s  ClockTime = 6 s

Courant Number mean: 0.3999715792 max: 382.6186447
Time = 0.125s

PIMPLE: Iteration 1
DILUPBiCGStab:  Solving for Ux, Initial residual = 0.002101403146, Final residual = 1.590892707e-06, No Iterations 1
DILUPBiCGStab:  Solving for Uy, Initial residual = 0.01270906098, Final residual = 1.198633558e-05, No Iterations 1
GAMG:  Solving for p, Initial residual = 0.08474983441, Final residual = 7.61694338e-08, No Iterations 30
GAMG:  Solving for p, Initial residual = 0.01976225623, Final residual = 1.578706797e-08, No Iterations 35
time step continuity errors : sum local = 3.959525795e-12, global = 1.14217042e-14
GAMG:  Solving for p, Initial residual = 0.05720882406, Final residual = 4.769982682e-08, No Iterations 30
GAMG:  Solving for p, Initial residual = 0.0136575887, Final residual = 8.020229445e-11, No Iterations 55
time step continuity errors : sum local = 2.000362808e-14, global = 7.307339181e-17
PIMPLE: Iteration 2
DILUPBiCGStab:  Solving for Ux, Initial residual = 0.0009102164536, Final residual = 1.196096559e-06, No Iterations 1
DILUPBiCGStab:  Solving for Uy, Initial residual = 0.005667650056, Final residual = 9.463899076e-06, No Iterations 1
GAMG:  Solving for p, Initial residual = 0.1595083046, Final residual = 1.412083649e-07, No Iterations 31
GAMG:  Solving for p, Initial residual = 0.02577322635, Final residual = 2.231579473e-08, No Iterations 35
time step continuity errors : sum local = 5.244039455e-12, global = 1.669444305e-14
GAMG:  Solving for p, Initial residual = 0.1108308619, Final residual = 9.379178486e-08, No Iterations 31
GAMG:  Solving for p, Initial residual = 0.01797760316, Final residual = 9.124516698e-11, No Iterations 57
time step continuity errors : sum local = 2.127529419e-14, global = 8.968021147e-17
PIMPLE: Iteration 3
DILUPBiCGStab:  Solving for Ux, Initial residual = 0.0004208799238, Final residual = 8.66987165e-07, No Iterations 1
DILUPBiCGStab:  Solving for Uy, Initial residual = 0.00283203757, Final residual = 8.499931594e-06, No Iterations 1
GAMG:  Solving for p, Initial residual = 0.1457378178, Final residual = 1.373935347e-07, No Iterations 31
GAMG:  Solving for p, Initial residual = 0.02576127779, Final residual = 2.486895854e-08, No Iterations 33
time step continuity errors : sum local = 5.757777495e-12, global = 1.784587186e-14
GAMG:  Solving for p, Initial residual = 0.1026601557, Final residual = 9.436810607e-08, No Iterations 31
GAMG:  Solving for p, Initial residual = 0.01801019291, Final residual = 9.051097433e-11, No Iterations 56
time step continuity errors : sum local = 2.079926189e-14, global = 8.748296448e-17
PIMPLE: Iteration 4
DILUPBiCGStab:  Solving for Ux, Initial residual = 0.0002430239185, Final residual = 7.170883133e-07, No Iterations 1
DILUPBiCGStab:  Solving for Uy, Initial residual = 0.001726486408, Final residual = 7.106176455e-06, No Iterations 1
GAMG:  Solving for p, Initial residual = 0.1142407447, Final residual = 1.130504482e-07, No Iterations 31
GAMG:  Solving for p, Initial residual = 0.02258542443, Final residual = 2.04671326e-08, No Iterations 31
time step continuity errors : sum local = 4.662706727e-12, global = -7.201123341e-14
GAMG:  Solving for p, Initial residual = 0.08060636407, Final residual = 7.598521957e-08, No Iterations 31
GAMG:  Solving for p, Initial residual = 0.01576490314, Final residual = 9.674553379e-11, No Iterations 54
time step continuity errors : sum local = 2.188669486e-14, global = 6.707723428e-17
PIMPLE: Iteration 5
DILUPBiCGStab:  Solving for Ux, Initial residual = 0.0001913921794, Final residual = 6.732026524e-07, No Iterations 1
DILUPBiCGStab:  Solving for Uy, Initial residual = 0.001288161797, Final residual = 5.764931273e-06, No Iterations 1
GAMG:  Solving for p, Initial residual = 0.08273730013, Final residual = 6.78724461e-08, No Iterations 32
GAMG:  Solving for p, Initial residual = 0.01733994115, Final residual = 1.704948865e-08, No Iterations 28
time step continuity errors : sum local = 3.837832188e-12, global = -1.312622787e-14
GAMG:  Solving for p, Initial residual = 0.05796456383, Final residual = 5.335252798e-08, No Iterations 31
GAMG:  Solving for p, Initial residual = 0.01213665066, Final residual = 8.742168022e-11, No Iterations 47
time step continuity errors : sum local = 1.958061704e-14, global = -7.421394143e-17
PIMPLE: Iteration 6
DILUPBiCGStab:  Solving for Ux, Initial residual = 0.0001591557859, Final residual = 6.467290901e-07, No Iterations 1
DILUPBiCGStab:  Solving for Uy, Initial residual = 0.001048196096, Final residual = 4.876092523e-06, No Iterations 1
GAMG:  Solving for p, Initial residual = 0.05734526163, Final residual = 5.617001047e-08, No Iterations 31
GAMG:  Solving for p, Initial residual = 0.01186447389, Final residual = 9.718302704e-09, No Iterations 30
time step continuity errors : sum local = 2.173602042e-12, global = -7.505972427e-15
GAMG:  Solving for p, Initial residual = 0.04013154763, Final residual = 3.770042174e-08, No Iterations 31
GAMG:  Solving for p, Initial residual = 0.008299851899, Final residual = 9.317544792e-11, No Iterations 48
time step continuity errors : sum local = 2.07793232e-14, global = -8.255410329e-17
PIMPLE: Iteration 7
DILUPBiCGStab:  Solving for Ux, Initial residual = 0.0001296899366, Final residual = 6.221825852e-07, No Iterations 1
DILUPBiCGStab:  Solving for Uy, Initial residual = 0.0008706253463, Final residual = 4.420313236e-06, No Iterations 1
GAMG:  Solving for p, Initial residual = 0.0396473989, Final residual = 3.590258743e-08, No Iterations 28
GAMG:  Solving for p, Initial residual = 0.008033782016, Final residual = 6.751676771e-09, No Iterations 30
time step continuity errors : sum local = 1.51060451e-12, global = -5.789093102e-15
GAMG:  Solving for p, Initial residual = 0.02760125602, Final residual = 2.212395066e-08, No Iterations 28
GAMG:  Solving for p, Initial residual = 0.005634031809, Final residual = 9.849797703e-11, No Iterations 47
time step continuity errors : sum local = 2.199756295e-14, global = -9.136742748e-17
PIMPLE: Iteration 8
DILUPBiCGStab:  Solving for Ux, Initial residual = 0.0001049958265, Final residual = 5.986116312e-07, No Iterations 1
DILUPBiCGStab:  Solving for Uy, Initial residual = 0.0007208214198, Final residual = 4.194744134e-06, No Iterations 1
GAMG:  Solving for p, Initial residual = 0.02790825176, Final residual = 2.729351663e-08, No Iterations 28
GAMG:  Solving for p, Initial residual = 0.006128707083, Final residual = 4.979041834e-09, No Iterations 31
time step continuity errors : sum local = 1.119709991e-12, global = 1.927144558e-14
GAMG:  Solving for p, Initial residual = 0.01936782813, Final residual = 1.630487683e-08, No Iterations 28
GAMG:  Solving for p, Initial residual = 0.004336379414, Final residual = 8.751496886e-11, No Iterations 48
time step continuity errors : sum local = 1.963851256e-14, global = 5.103623485e-16
PIMPLE: Iteration 9
DILUPBiCGStab:  Solving for Ux, Initial residual = 8.599261277e-05, Final residual = 5.80288273e-07, No Iterations 1
DILUPBiCGStab:  Solving for Uy, Initial residual = 0.0005967622747, Final residual = 4.051281009e-06, No Iterations 1
GAMG:  Solving for p, Initial residual = 0.01987939055, Final residual = 1.672746943e-08, No Iterations 31
GAMG:  Solving for p, Initial residual = 0.004956183806, Final residual = 4.25325258e-09, No Iterations 33
time step continuity errors : sum local = 9.613793752e-13, global = 1.76548453e-14
GAMG:  Solving for p, Initial residual = 0.0138225435, Final residual = 1.336443192e-08, No Iterations 30
GAMG:  Solving for p, Initial residual = 0.003510181321, Final residual = 8.934999833e-11, No Iterations 48
time step continuity errors : sum local = 2.014319995e-14, global = 5.392982531e-16
PIMPLE: Iteration 10
DILUPBiCGStab:  Solving for Ux, Initial residual = 7.272182567e-05, Final residual = 5.714285173e-07, No Iterations 1
DILUPBiCGStab:  Solving for Uy, Initial residual = 0.0005033063006, Final residual = 7.742372344e-07, No Iterations 2
GAMG:  Solving for p, Initial residual = 0.01445397054, Final residual = 1.251040459e-08, No Iterations 33
GAMG:  Solving for p, Initial residual = 0.003900141839, Final residual = 3.30307711e-09, No Iterations 35
time step continuity errors : sum local = 7.485646479e-13, global = -6.827010134e-16
GAMG:  Solving for p, Initial residual = 0.0101043978, Final residual = 9.940686727e-09, No Iterations 32
GAMG:  Solving for p, Initial residual = 0.0027483108, Final residual = 8.110297232e-11, No Iterations 49
time step continuity errors : sum local = 1.833102843e-14, global = -6.26631117e-17, cumulative = 5.198279059e-14
ExecutionTime = 7.902334 s  ClockTime = 8 s

Courant Number mean: 0.4000944289 max: 417.9263445
Time = 0.15s

PIMPLE: Iteration 1
DILUPBiCGStab:  Solving for Ux, Initial residual = 0.00155249528, Final residual = 1.821277578e-06, No Iterations 1
DILUPBiCGStab:  Solving for Uy, Initial residual = 0.0111457458, Final residual = 1.12968093e-05, No Iterations 1
GAMG:  Solving for p, Initial residual = 0.05687774382, Final residual = 5.345310196e-08, No Iterations 34
GAMG:  Solving for p, Initial residual = 0.01923179613, Final residual = 1.549771356e-08, No Iterations 36
time step continuity errors : sum local = 3.679946439e-12, global = 1.019891254e-14
GAMG:  Solving for p, Initial residual = 0.03770268201, Final residual = 2.988120812e-08, No Iterations 34
GAMG:  Solving for p, Initial residual = 0.01328085851, Final residual = 8.535328811e-11, No Iterations 56
time step continuity errors : sum local = 2.012001673e-14, global = 7.205664321e-17
PIMPLE: Iteration 2
DILUPBiCGStab:  Solving for Ux, Initial residual = 0.0007023960142, Final residual = 1.511558821e-06, No Iterations 1
DILUPBiCGStab:  Solving for Uy, Initial residual = 0.005053612396, Final residual = 9.297800362e-06, No Iterations 1
GAMG:  Solving for p, Initial residual = 0.08916538555, Final residual = 7.63154452e-08, No Iterations 28
GAMG:  Solving for p, Initial residual = 0.02299276583, Final residual = 2.116871873e-08, No Iterations 35
time step continuity errors : sum local = 4.946085001e-12, global = 1.401871522e-14
GAMG:  Solving for p, Initial residual = 0.06110612935, Final residual = 4.732585191e-08, No Iterations 28
GAMG:  Solving for p, Initial residual = 0.01597849396, Final residual = 8.097561348e-11, No Iterations 57
time step continuity errors : sum local = 1.882970115e-14, global = 7.296065707e-17
PIMPLE: Iteration 3
DILUPBiCGStab:  Solving for Ux, Initial residual = 0.0003675104293, Final residual = 1.249904476e-06, No Iterations 1
DILUPBiCGStab:  Solving for Uy, Initial residual = 0.002593024125, Final residual = 8.309255609e-06, No Iterations 1
GAMG:  Solving for p, Initial residual = 0.08193338702, Final residual = 7.368639023e-08, No Iterations 28
GAMG:  Solving for p, Initial residual = 0.02295849316, Final residual = 1.858820096e-08, No Iterations 33
time step continuity errors : sum local = 4.216893949e-12, global = 1.004619979e-14
GAMG:  Solving for p, Initial residual = 0.05728358089, Final residual = 4.760030225e-08, No Iterations 28
GAMG:  Solving for p, Initial residual = 0.01597864322, Final residual = 8.091777265e-11, No Iterations 55
time step continuity errors : sum local = 1.828845511e-14, global = 7.120272454e-17
PIMPLE: Iteration 4
DILUPBiCGStab:  Solving for Ux, Initial residual = 0.0002322157023, Final residual = 1.056751119e-06, No Iterations 1
DILUPBiCGStab:  Solving for Uy, Initial residual = 0.001577547934, Final residual = 6.868138672e-06, No Iterations 1
GAMG:  Solving for p, Initial residual = 0.06797827332, Final residual = 6.719344792e-08, No Iterations 30
GAMG:  Solving for p, Initial residual = 0.02129067765, Final residual = 1.682129844e-08, No Iterations 28
time step continuity errors : sum local = 3.730823709e-12, global = -1.302799096e-14
GAMG:  Solving for p, Initial residual = 0.04793977262, Final residual = 4.142373412e-08, No Iterations 30
GAMG:  Solving for p, Initial residual = 0.01482747492, Final residual = 8.960139545e-11, No Iterations 44
time step continuity errors : sum local = 1.982034078e-14, global = -9.943014384e-17
PIMPLE: Iteration 5
DILUPBiCGStab:  Solving for Ux, Initial residual = 0.000173417657, Final residual = 9.492189235e-07, No Iterations 1
DILUPBiCGStab:  Solving for Uy, Initial residual = 0.001135103301, Final residual = 5.409034935e-06, No Iterations 1
GAMG:  Solving for p, Initial residual = 0.05270451159, Final residual = 4.361139375e-08, No Iterations 32
GAMG:  Solving for p, Initial residual = 0.01775103754, Final residual = 1.568425439e-08, No Iterations 32
time step continuity errors : sum local = 3.425072074e-12, global = -1.003554095e-14
GAMG:  Solving for p, Initial residual = 0.03716062194, Final residual = 3.390142194e-08, No Iterations 31
GAMG:  Solving for p, Initial residual = 0.01245033347, Final residual = 9.736915551e-11, No Iterations 51
time step continuity errors : sum local = 2.123942785e-14, global = -8.625725962e-17
PIMPLE: Iteration 6
DILUPBiCGStab:  Solving for Ux, Initial residual = 0.0001384857359, Final residual = 8.693944268e-07, No Iterations 1
DILUPBiCGStab:  Solving for Uy, Initial residual = 0.0009092608955, Final residual = 4.453576795e-06, No Iterations 1
GAMG:  Solving for p, Initial residual = 0.03874587893, Final residual = 3.457359677e-08, No Iterations 30
GAMG:  Solving for p, Initial residual = 0.01329246908, Final residual = 1.322320817e-08, No Iterations 33
time step continuity errors : sum local = 2.866151678e-12, global = -8.917101635e-15
GAMG:  Solving for p, Initial residual = 0.02736109324, Final residual = 2.123485385e-08, No Iterations 30
GAMG:  Solving for p, Initial residual = 0.009343747272, Final residual = 8.110206533e-11, No Iterations 53
time step continuity errors : sum local = 1.758162507e-14, global = -7.439713604e-17
PIMPLE: Iteration 7
DILUPBiCGStab:  Solving for Ux, Initial residual = 0.0001119088743, Final residual = 7.928648903e-07, No Iterations 1
DILUPBiCGStab:  Solving for Uy, Initial residual = 0.0007535276654, Final residual = 3.96170202e-06, No Iterations 1
GAMG:  Solving for p, Initial residual = 0.02801859012, Final residual = 2.615542018e-08, No Iterations 31
GAMG:  Solving for p, Initial residual = 0.009673965498, Final residual = 9.150430413e-09, No Iterations 34
time step continuity errors : sum local = 1.984262773e-12, global = -5.988702572e-15
GAMG:  Solving for p, Initial residual = 0.01972386812, Final residual = 1.606778241e-08, No Iterations 31
GAMG:  Solving for p, Initial residual = 0.00681011248, Final residual = 9.870922996e-11, No Iterations 52
time step continuity errors : sum local = 2.14164281e-14, global = -9.098705793e-17
PIMPLE: Iteration 8
DILUPBiCGStab:  Solving for Ux, Initial residual = 9.104447902e-05, Final residual = 7.192623685e-07, No Iterations 1
DILUPBiCGStab:  Solving for Uy, Initial residual = 0.0006255332697, Final residual = 3.71405836e-06, No Iterations 1
GAMG:  Solving for p, Initial residual = 0.02025338142, Final residual = 1.882115436e-08, No Iterations 33
GAMG:  Solving for p, Initial residual = 0.007329383429, Final residual = 6.732197475e-09, No Iterations 35
time step continuity errors : sum local = 1.466006702e-12, global = -4.961174202e-16
GAMG:  Solving for p, Initial residual = 0.01421451353, Final residual = 1.204653378e-08, No Iterations 33
GAMG:  Solving for p, Initial residual = 0.005170284717, Final residual = 9.634206039e-11, No Iterations 52
time step continuity errors : sum local = 2.098053085e-14, global = -8.284671439e-17
PIMPLE: Iteration 9
DILUPBiCGStab:  Solving for Ux, Initial residual = 7.57701927e-05, Final residual = 6.523430263e-07, No Iterations 1
DILUPBiCGStab:  Solving for Uy, Initial residual = 0.000526910156, Final residual = 3.551105054e-06, No Iterations 1
GAMG:  Solving for p, Initial residual = 0.01468085989, Final residual = 1.249589146e-08, No Iterations 35
GAMG:  Solving for p, Initial residual = 0.005656818426, Final residual = 5.233572263e-09, No Iterations 36
time step continuity errors : sum local = 1.143920565e-12, global = 1.001925039e-14
GAMG:  Solving for p, Initial residual = 0.01026731518, Final residual = 8.105620835e-09, No Iterations 35
GAMG:  Solving for p, Initial residual = 0.003981573283, Final residual = 8.32968062e-11, No Iterations 53
time step continuity errors : sum local = 1.819812557e-14, global = -2.559582486e-17
PIMPLE: Iteration 10
DILUPBiCGStab:  Solving for Ux, Initial residual = 6.619792419e-05, Final residual = 5.989889723e-07, No Iterations 1
DILUPBiCGStab:  Solving for Uy, Initial residual = 0.0004632577999, Final residual = 4.249196507e-07, No Iterations 2
GAMG:  Solving for p, Initial residual = 0.01077050463, Final residual = 9.769609356e-09, No Iterations 36
GAMG:  Solving for p, Initial residual = 0.004278112395, Final residual = 3.653697744e-09, No Iterations 37
time step continuity errors : sum local = 7.995375515e-13, global = 3.373328458e-15
GAMG:  Solving for p, Initial residual = 0.007558400691, Final residual = 6.290938451e-09, No Iterations 36
GAMG:  Solving for p, Initial residual = 0.00299203228, Final residual = 8.750374838e-11, No Iterations 52
time step continuity errors : sum local = 1.913627761e-14, global = -3.853729342e-17, cumulative = 5.19442533e-14
ExecutionTime = 9.345994 s  ClockTime = 9 s

Courant Number mean: 0.4002285418 max: 451.3744356
Time = 0.175s

PIMPLE: Iteration 1
DILUPBiCGStab:  Solving for Ux, Initial residual = 0.001410653357, Final residual = 1.527578663e-06, No Iterations 1
DILUPBiCGStab:  Solving for Uy, Initial residual = 0.01043065658, Final residual = 9.936938071e-06, No Iterations 1
GAMG:  Solving for p, Initial residual = 0.04615439311, Final residual = 3.723423607e-08, No Iterations 34
GAMG:  Solving for p, Initial residual = 0.01865364982, Final residual = 1.554754592e-08, No Iterations 36
time step continuity errors : sum local = 3.596043133e-12, global = 9.992649546e-15
GAMG:  Solving for p, Initial residual = 0.03062572757, Final residual = 2.651036677e-08, No Iterations 33
GAMG:  Solving for p, Initial residual = 0.01284395529, Final residual = 8.998867584e-11, No Iterations 56
time step continuity errors : sum local = 2.066397817e-14, global = 7.636966564e-17
PIMPLE: Iteration 2
DILUPBiCGStab:  Solving for Ux, Initial residual = 0.0006275502785, Final residual = 1.124871467e-06, No Iterations 1
DILUPBiCGStab:  Solving for Uy, Initial residual = 0.004747229004, Final residual = 7.390729995e-06, No Iterations 1
GAMG:  Solving for p, Initial residual = 0.06233880841, Final residual = 5.503343101e-08, No Iterations 29
GAMG:  Solving for p, Initial residual = 0.02186626295, Final residual = 1.900009133e-08, No Iterations 35
time step continuity errors : sum local = 4.28349131e-12, global = 1.143452704e-14
GAMG:  Solving for p, Initial residual = 0.04257746103, Final residual = 3.804874878e-08, No Iterations 28
GAMG:  Solving for p, Initial residual = 0.01510435586, Final residual = 9.050497668e-11, No Iterations 56
time step continuity errors : sum local = 2.033088091e-14, global = 7.784254353e-17
PIMPLE: Iteration 3
DILUPBiCGStab:  Solving for Ux, Initial residual = 0.0003284805618, Final residual = 8.875394607e-07, No Iterations 1
DILUPBiCGStab:  Solving for Uy, Initial residual = 0.00244094884, Final residual = 5.886902953e-06, No Iterations 1
GAMG:  Solving for p, Initial residual = 0.05833101011, Final residual = 5.172039988e-08, No Iterations 29
GAMG:  Solving for p, Initial residual = 0.02178478268, Final residual = 1.840874692e-08, No Iterations 32
time step continuity errors : sum local = 3.991112751e-12, global = -1.30044676e-14
GAMG:  Solving for p, Initial residual = 0.04098683547, Final residual = 4.075689135e-08, No Iterations 28
GAMG:  Solving for p, Initial residual = 0.01511266171, Final residual = 9.83947345e-11, No Iterations 53
time step continuity errors : sum local = 2.13239921e-14, global = 7.226743084e-17
PIMPLE: Iteration 4
DILUPBiCGStab:  Solving for Ux, Initial residual = 0.0002071667136, Final residual = 7.428390166e-07, No Iterations 1
DILUPBiCGStab:  Solving for Uy, Initial residual = 0.001474264683, Final residual = 4.746761018e-06, No Iterations 1
GAMG:  Solving for p, Initial residual = 0.05225175871, Final residual = 4.927882466e-08, No Iterations 30
GAMG:  Solving for p, Initial residual = 0.02146320807, Final residual = 1.7514348e-08, No Iterations 29
time step continuity errors : sum local = 3.695139191e-12, global = -1.008282966e-14
GAMG:  Solving for p, Initial residual = 0.037005708, Final residual = 2.941884752e-08, No Iterations 30
GAMG:  Solving for p, Initial residual = 0.01495906063, Final residual = 9.39490554e-11, No Iterations 48
time step continuity errors : sum local = 1.984103826e-14, global = -7.332761107e-17
PIMPLE: Iteration 5
DILUPBiCGStab:  Solving for Ux, Initial residual = 0.0001489232176, Final residual = 6.365440726e-07, No Iterations 1
DILUPBiCGStab:  Solving for Uy, Initial residual = 0.001034648758, Final residual = 3.766223259e-06, No Iterations 1
GAMG:  Solving for p, Initial residual = 0.04277486578, Final residual = 3.862282568e-08, No Iterations 30
GAMG:  Solving for p, Initial residual = 0.01818982993, Final residual = 1.789736152e-08, No Iterations 32
time step continuity errors : sum local = 3.721449215e-12, global = -1.076826018e-14
GAMG:  Solving for p, Initial residual = 0.03031873774, Final residual = 2.829537026e-08, No Iterations 29
GAMG:  Solving for p, Initial residual = 0.01273857788, Final residual = 8.241750537e-11, No Iterations 53
time step continuity errors : sum local = 1.717271018e-14, global = -7.060737361e-17
PIMPLE: Iteration 6
DILUPBiCGStab:  Solving for Ux, Initial residual = 0.000115049867, Final residual = 5.543319898e-07, No Iterations 1
DILUPBiCGStab:  Solving for Uy, Initial residual = 0.0008118531761, Final residual = 3.108677899e-06, No Iterations 1
GAMG:  Solving for p, Initial residual = 0.03230599995, Final residual = 2.869189404e-08, No Iterations 30
GAMG:  Solving for p, Initial residual = 0.01361161651, Final residual = 1.154628415e-08, No Iterations 34
time step continuity errors : sum local = 2.392557067e-12, global = -7.029831155e-15
GAMG:  Solving for p, Initial residual = 0.02290061039, Final residual = 2.047013468e-08, No Iterations 29
GAMG:  Solving for p, Initial residual = 0.009575390145, Final residual = 9.534468264e-11, No Iterations 53
time step continuity errors : sum local = 1.980719628e-14, global = -8.360227488e-17
PIMPLE: Iteration 7
DILUPBiCGStab:  Solving for Ux, Initial residual = 9.107450113e-05, Final residual = 4.77919558e-07, No Iterations 1
DILUPBiCGStab:  Solving for Uy, Initial residual = 0.0006676968294, Final residual = 2.774195461e-06, No Iterations 1
GAMG:  Solving for p, Initial residual = 0.02333622153, Final residual = 1.83413858e-08, No Iterations 33
GAMG:  Solving for p, Initial residual = 0.009713800825, Final residual = 8.034790554e-09, No Iterations 35
time step continuity errors : sum local = 1.671127189e-12, global = -2.283148848e-15
GAMG:  Solving for p, Initial residual = 0.01646666811, Final residual = 1.509449542e-08, No Iterations 32
GAMG:  Solving for p, Initial residual = 0.006840838803, Final residual = 9.136283438e-11, No Iterations 53
time step continuity errors : sum local = 1.904234351e-14, global = -7.841551647e-17
PIMPLE: Iteration 8
DILUPBiCGStab:  Solving for Ux, Initial residual = 7.350580263e-05, Final residual = 4.123820954e-07, No Iterations 1
DILUPBiCGStab:  Solving for Uy, Initial residual = 0.0005551256262, Final residual = 2.605968795e-06, No Iterations 1
GAMG:  Solving for p, Initial residual = 0.01671333062, Final residual = 1.316088971e-08, No Iterations 35
GAMG:  Solving for p, Initial residual = 0.007065472355, Final residual = 5.972822352e-09, No Iterations 35
time step continuity errors : sum local = 1.249165725e-12, global = 2.57817402e-14
GAMG:  Solving for p, Initial residual = 0.01172030824, Final residual = 1.093445186e-08, No Iterations 34
GAMG:  Solving for p, Initial residual = 0.004969293889, Final residual = 8.581286898e-11, No Iterations 54
time step continuity errors : sum local = 1.79692044e-14, global = 4.016021427e-16
PIMPLE: Iteration 9
DILUPBiCGStab:  Solving for Ux, Initial residual = 6.145627282e-05, Final residual = 3.59474078e-07, No Iterations 1
DILUPBiCGStab:  Solving for Uy, Initial residual = 0.0004723404332, Final residual = 2.480792201e-06, No Iterations 1
GAMG:  Solving for p, Initial residual = 0.01201591944, Final residual = 9.840729452e-09, No Iterations 36
GAMG:  Solving for p, Initial residual = 0.005122500646, Final residual = 4.130728334e-09, No Iterations 35
time step continuity errors : sum local = 8.676269345e-13, global = 5.819599647e-15
GAMG:  Solving for p, Initial residual = 0.008414115601, Final residual = 8.095564618e-09, No Iterations 35
GAMG:  Solving for p, Initial residual = 0.003595375262, Final residual = 8.859551202e-11, No Iterations 50
time step continuity errors : sum local = 1.861781713e-14, global = 1.094372558e-16
PIMPLE: Iteration 10
DILUPBiCGStab:  Solving for Ux, Initial residual = 5.398791566e-05, Final residual = 3.201644968e-07, No Iterations 1
DILUPBiCGStab:  Solving for Uy, Initial residual = 0.0004173504243, Final residual = 5.956918349e-07, No Iterations 2
GAMG:  Solving for p, Initial residual = 0.008809490864, Final residual = 8.534059172e-09, No Iterations 36
GAMG:  Solving for p, Initial residual = 0.003651478416, Final residual = 3.426723805e-09, No Iterations 35
time step continuity errors : sum local = 7.209012492e-13, global = 5.245051671e-15
GAMG:  Solving for p, Initial residual = 0.006155527743, Final residual = 5.488877399e-09, No Iterations 36
GAMG:  Solving for p, Initial residual = 0.002549000569, Final residual = 8.842189981e-11, No Iterations 49
time step continuity errors : sum local = 1.860479286e-14, global = 1.102325382e-16, cumulative = 5.205448584e-14
ExecutionTime = 10.79439 s  ClockTime = 11 s

Courant Number mean: 0.4003579731 max: 478.3233128
Time = 0.2s

PIMPLE: Iteration 1
DILUPBiCGStab:  Solving for Ux, Initial residual = 0.001303432293, Final residual = 1.122375414e-06, No Iterations 1
DILUPBiCGStab:  Solving for Uy, Initial residual = 0.0100016049, Final residual = 8.573321217e-06, No Iterations 1
GAMG:  Solving for p, Initial residual = 0.04166988538, Final residual = 3.341482277e-08, No Iterations 34
GAMG:  Solving for p, Initial residual = 0.01718997947, Final residual = 1.568907304e-08, No Iterations 35
time step continuity errors : sum local = 3.499244348e-12, global = 7.248316381e-15
GAMG:  Solving for p, Initial residual = 0.02775752487, Final residual = 2.293999589e-08, No Iterations 33
GAMG:  Solving for p, Initial residual = 0.01181739104, Final residual = 9.337350295e-11, No Iterations 55
time step continuity errors : sum local = 2.065400922e-14, global = 7.143094642e-17
PIMPLE: Iteration 2
DILUPBiCGStab:  Solving for Ux, Initial residual = 0.0005750149491, Final residual = 7.773818236e-07, No Iterations 1
DILUPBiCGStab:  Solving for Uy, Initial residual = 0.004526576093, Final residual = 6.298988419e-06, No Iterations 1
GAMG:  Solving for p, Initial residual = 0.05571698095, Final residual = 5.141051089e-08, No Iterations 28
GAMG:  Solving for p, Initial residual = 0.02058497982, Final residual = 2.006463673e-08, No Iterations 34
time step continuity errors : sum local = 4.332764966e-12, global = 2.401548774e-15
GAMG:  Solving for p, Initial residual = 0.03808254567, Final residual = 3.278495989e-08, No Iterations 27
GAMG:  Solving for p, Initial residual = 0.01422910818, Final residual = 9.663759843e-11, No Iterations 55
time step continuity errors : sum local = 2.079261915e-14, global = 7.304539216e-17
PIMPLE: Iteration 3
DILUPBiCGStab:  Solving for Ux, Initial residual = 0.0002977948632, Final residual = 5.488299861e-07, No Iterations 1
DILUPBiCGStab:  Solving for Uy, Initial residual = 0.002295764867, Final residual = 4.78709361e-06, No Iterations 1
GAMG:  Solving for p, Initial residual = 0.05439584577, Final residual = 5.212411153e-08, No Iterations 29
GAMG:  Solving for p, Initial residual = 0.02163801341, Final residual = 1.853237413e-08, No Iterations 31
time step continuity errors : sum local = 3.84588189e-12, global = -5.84572973e-14
GAMG:  Solving for p, Initial residual = 0.03816303657, Final residual = 3.307697861e-08, No Iterations 29
GAMG:  Solving for p, Initial residual = 0.01498985083, Final residual = 8.422438017e-11, No Iterations 53
time step continuity errors : sum local = 1.749471121e-14, global = -1.34087133e-16
PIMPLE: Iteration 4
DILUPBiCGStab:  Solving for Ux, Initial residual = 0.0001820504107, Final residual = 4.044821236e-07, No Iterations 1
DILUPBiCGStab:  Solving for Uy, Initial residual = 0.001353679361, Final residual = 3.637210969e-06, No Iterations 1
GAMG:  Solving for p, Initial residual = 0.04894060887, Final residual = 4.610778692e-08, No Iterations 30
GAMG:  Solving for p, Initial residual = 0.02103233616, Final residual = 1.66693726e-08, No Iterations 26
time step continuity errors : sum local = 3.37318678e-12, global = -9.698968711e-15
GAMG:  Solving for p, Initial residual = 0.03460661521, Final residual = 2.80136962e-08, No Iterations 30
GAMG:  Solving for p, Initial residual = 0.01461904187, Final residual = 9.736898829e-11, No Iterations 44
time step continuity errors : sum local = 1.976303403e-14, global = -5.753430138e-17
PIMPLE: Iteration 5
DILUPBiCGStab:  Solving for Ux, Initial residual = 0.0001284346128, Final residual = 3.195135605e-07, No Iterations 1
DILUPBiCGStab:  Solving for Uy, Initial residual = 0.0009300263111, Final residual = 2.774185528e-06, No Iterations 1
GAMG:  Solving for p, Initial residual = 0.03962180489, Final residual = 3.23183196e-08, No Iterations 30
GAMG:  Solving for p, Initial residual = 0.01721118031, Final residual = 1.620893558e-08, No Iterations 30
time step continuity errors : sum local = 3.245036632e-12, global = -7.361127022e-15
GAMG:  Solving for p, Initial residual = 0.02803001187, Final residual = 2.447769309e-08, No Iterations 29
GAMG:  Solving for p, Initial residual = 0.01202230056, Final residual = 9.412263225e-11, No Iterations 50
time step continuity errors : sum local = 1.890677103e-14, global = -7.057472211e-17
PIMPLE: Iteration 6
DILUPBiCGStab:  Solving for Ux, Initial residual = 9.834970327e-05, Final residual = 2.626840471e-07, No Iterations 1
DILUPBiCGStab:  Solving for Uy, Initial residual = 0.0007204683477, Final residual = 2.263833435e-06, No Iterations 1
GAMG:  Solving for p, Initial residual = 0.02945700205, Final residual = 2.813319063e-08, No Iterations 28
GAMG:  Solving for p, Initial residual = 0.01240425662, Final residual = 9.702291447e-09, No Iterations 33
time step continuity errors : sum local = 1.94047419e-12, global = 1.438716525e-15
GAMG:  Solving for p, Initial residual = 0.02077754029, Final residual = 1.684934911e-08, No Iterations 28
GAMG:  Solving for p, Initial residual = 0.008709421672, Final residual = 7.973492418e-11, No Iterations 52
time step continuity errors : sum local = 1.599320154e-14, global = -6.16467367e-17
PIMPLE: Iteration 7
DILUPBiCGStab:  Solving for Ux, Initial residual = 7.71405837e-05, Final residual = 2.230018164e-07, No Iterations 1
DILUPBiCGStab:  Solving for Uy, Initial residual = 0.0005849244496, Final residual = 1.992852606e-06, No Iterations 1
GAMG:  Solving for p, Initial residual = 0.02080566395, Final residual = 1.6510238e-08, No Iterations 30
GAMG:  Solving for p, Initial residual = 0.008527333354, Final residual = 8.365072992e-09, No Iterations 33
time step continuity errors : sum local = 1.679632073e-12, global = 2.508062348e-14
GAMG:  Solving for p, Initial residual = 0.01457198276, Final residual = 1.431855398e-08, No Iterations 29
GAMG:  Solving for p, Initial residual = 0.006005931182, Final residual = 9.809461861e-11, No Iterations 52
time step continuity errors : sum local = 1.973372131e-14, global = 4.977360493e-16
PIMPLE: Iteration 8
DILUPBiCGStab:  Solving for Ux, Initial residual = 6.134582357e-05, Final residual = 1.926942063e-07, No Iterations 1
DILUPBiCGStab:  Solving for Uy, Initial residual = 0.0004797102813, Final residual = 1.846428204e-06, No Iterations 1
GAMG:  Solving for p, Initial residual = 0.01447630618, Final residual = 1.223825376e-08, No Iterations 33
GAMG:  Solving for p, Initial residual = 0.005908219472, Final residual = 4.762949928e-09, No Iterations 34
time step continuity errors : sum local = 9.611123402e-13, global = 5.413683553e-15
GAMG:  Solving for p, Initial residual = 0.01008767903, Final residual = 8.28408552e-09, No Iterations 33
GAMG:  Solving for p, Initial residual = 0.004143988434, Final residual = 8.48116253e-11, No Iterations 50
time step continuity errors : sum local = 1.713052927e-14, global = 9.644645952e-17
PIMPLE: Iteration 9
DILUPBiCGStab:  Solving for Ux, Initial residual = 5.061370061e-05, Final residual = 1.708920453e-07, No Iterations 1
DILUPBiCGStab:  Solving for Uy, Initial residual = 0.0004030374472, Final residual = 1.733035145e-06, No Iterations 1
GAMG:  Solving for p, Initial residual = 0.01028763468, Final residual = 8.554036824e-09, No Iterations 35
GAMG:  Solving for p, Initial residual = 0.004081510195, Final residual = 3.623031144e-09, No Iterations 34
time step continuity errors : sum local = 7.337434198e-13, global = 4.033424585e-15
GAMG:  Solving for p, Initial residual = 0.007170659238, Final residual = 5.970703247e-09, No Iterations 35
GAMG:  Solving for p, Initial residual = 0.002857463364, Final residual = 9.784146085e-11, No Iterations 48
time step continuity errors : sum local = 1.981911703e-14, global = 1.100267665e-16
PIMPLE: Iteration 10
DILUPBiCGStab:  Solving for Ux, Initial residual = 4.39032607e-05, Final residual = 1.570990831e-07, No Iterations 1
DILUPBiCGStab:  Solving for Uy, Initial residual = 0.0003532231644, Final residual = 6.447368656e-07, No Iterations 2
GAMG:  Solving for p, Initial residual = 0.007540287083, Final residual = 6.593659992e-09, No Iterations 35
GAMG:  Solving for p, Initial residual = 0.002858214331, Final residual = 2.615438941e-09, No Iterations 35
time step continuity errors : sum local = 5.302937846e-13, global = 3.811398649e-15
GAMG:  Solving for p, Initial residual = 0.005239584758, Final residual = 4.796460706e-09, No Iterations 35
GAMG:  Solving for p, Initial residual = 0.001991285115, Final residual = 8.784448039e-11, No Iterations 48
time step continuity errors : sum local = 1.780905463e-14, global = 1.070450381e-16, cumulative = 5.216153088e-14
ExecutionTime = 12.211884 s  ClockTime = 12 s

Courant Number mean: 0.4004794621 max: 497.9391173
Time = 0.225s

PIMPLE: Iteration 1
DILUPBiCGStab:  Solving for Ux, Initial residual = 0.001238992031, Final residual = 1.055100541e-06, No Iterations 1
DILUPBiCGStab:  Solving for Uy, Initial residual = 0.009637338628, Final residual = 7.345680646e-06, No Iterations 1
GAMG:  Solving for p, Initial residual = 0.03891163814, Final residual = 3.462199485e-08, No Iterations 34
GAMG:  Solving for p, Initial residual = 0.01619666137, Final residual = 1.348568465e-08, No Iterations 33
time step continuity errors : sum local = 2.902145189e-12, global = -1.142710419e-14
GAMG:  Solving for p, Initial residual = 0.02576685523, Final residual = 2.348432088e-08, No Iterations 33
GAMG:  Solving for p, Initial residual = 0.01116248858, Final residual = 8.269441245e-11, No Iterations 52
time step continuity errors : sum local = 1.762339915e-14, global = -5.557421736e-17
PIMPLE: Iteration 2
DILUPBiCGStab:  Solving for Ux, Initial residual = 0.0005487147109, Final residual = 7.142088536e-07, No Iterations 1
DILUPBiCGStab:  Solving for Uy, Initial residual = 0.004335054227, Final residual = 5.152532836e-06, No Iterations 1
GAMG:  Solving for p, Initial residual = 0.05375657927, Final residual = 4.314110758e-08, No Iterations 29
GAMG:  Solving for p, Initial residual = 0.02049769231, Final residual = 1.678870743e-08, No Iterations 32
time step continuity errors : sum local = 3.513268972e-12, global = -1.363254652e-14
GAMG:  Solving for p, Initial residual = 0.03656912751, Final residual = 3.344962696e-08, No Iterations 27
GAMG:  Solving for p, Initial residual = 0.01417958253, Final residual = 9.747972284e-11, No Iterations 51
time step continuity errors : sum local = 2.029654271e-14, global = -7.14998909e-17
PIMPLE: Iteration 3
DILUPBiCGStab:  Solving for Ux, Initial residual = 0.0002787397322, Final residual = 4.885249157e-07, No Iterations 1
DILUPBiCGStab:  Solving for Uy, Initial residual = 0.002161456131, Final residual = 4.096722906e-06, No Iterations 1
GAMG:  Solving for p, Initial residual = 0.05292911679, Final residual = 5.286471944e-08, No Iterations 28
GAMG:  Solving for p, Initial residual = 0.02159941657, Final residual = 1.763993414e-08, No Iterations 30
time step continuity errors : sum local = 3.551757408e-12, global = -1.714689129e-14
GAMG:  Solving for p, Initial residual = 0.03699249284, Final residual = 3.399775171e-08, No Iterations 28
GAMG:  Solving for p, Initial residual = 0.01493996536, Final residual = 9.670477649e-11, No Iterations 49
time step continuity errors : sum local = 1.948953301e-14, global = -8.905341565e-17
PIMPLE: Iteration 4
DILUPBiCGStab:  Solving for Ux, Initial residual = 0.0001659950362, Final residual = 3.531882011e-07, No Iterations 1
DILUPBiCGStab:  Solving for Uy, Initial residual = 0.001251642904, Final residual = 3.175892224e-06, No Iterations 1
GAMG:  Solving for p, Initial residual = 0.04725243846, Final residual = 3.890650768e-08, No Iterations 31
GAMG:  Solving for p, Initial residual = 0.02018587672, Final residual = 1.665276294e-08, No Iterations 29
time step continuity errors : sum local = 3.266478777e-12, global = -1.806622305e-14
GAMG:  Solving for p, Initial residual = 0.03324257407, Final residual = 2.918431109e-08, No Iterations 30
GAMG:  Solving for p, Initial residual = 0.01396586021, Final residual = 9.495010306e-11, No Iterations 46
time step continuity errors : sum local = 1.869274879e-14, global = -8.242586689e-17
PIMPLE: Iteration 5
DILUPBiCGStab:  Solving for Ux, Initial residual = 0.0001150019519, Final residual = 2.606058712e-07, No Iterations 1
DILUPBiCGStab:  Solving for Uy, Initial residual = 0.0008503183697, Final residual = 2.385903537e-06, No Iterations 1
GAMG:  Solving for p, Initial residual = 0.03785971211, Final residual = 3.739995952e-08, No Iterations 30
GAMG:  Solving for p, Initial residual = 0.01599251784, Final residual = 1.369936267e-08, No Iterations 29
time step continuity errors : sum local = 2.656164954e-12, global = 1.764273299e-14
GAMG:  Solving for p, Initial residual = 0.0265803065, Final residual = 2.152697098e-08, No Iterations 30
GAMG:  Solving for p, Initial residual = 0.01110576869, Final residual = 8.704684902e-11, No Iterations 47
time step continuity errors : sum local = 1.694067481e-14, global = 2.213867017e-16
PIMPLE: Iteration 6
DILUPBiCGStab:  Solving for Ux, Initial residual = 8.674688435e-05, Final residual = 1.959572225e-07, No Iterations 1
DILUPBiCGStab:  Solving for Uy, Initial residual = 0.0006530518816, Final residual = 1.898952453e-06, No Iterations 1
GAMG:  Solving for p, Initial residual = 0.02799102238, Final residual = 2.27785371e-08, No Iterations 29
GAMG:  Solving for p, Initial residual = 0.01135933677, Final residual = 1.126675284e-08, No Iterations 29
time step continuity errors : sum local = 2.180612971e-12, global = 8.28343156e-15
GAMG:  Solving for p, Initial residual = 0.01958106957, Final residual = 1.62789178e-08, No Iterations 28
GAMG:  Solving for p, Initial residual = 0.007978861424, Final residual = 8.492519249e-11, No Iterations 47
time step continuity errors : sum local = 1.648393315e-14, global = 5.894435336e-17
PIMPLE: Iteration 7
DILUPBiCGStab:  Solving for Ux, Initial residual = 6.729391154e-05, Final residual = 1.687480759e-07, No Iterations 1
DILUPBiCGStab:  Solving for Uy, Initial residual = 0.000524532816, Final residual = 1.647250388e-06, No Iterations 1
GAMG:  Solving for p, Initial residual = 0.01965620381, Final residual = 1.510291178e-08, No Iterations 27
GAMG:  Solving for p, Initial residual = 0.007902369034, Final residual = 6.252217622e-09, No Iterations 32
time step continuity errors : sum local = 1.213710196e-12, global = 5.444521621e-15
GAMG:  Solving for p, Initial residual = 0.01364150595, Final residual = 1.288658666e-08, No Iterations 26
GAMG:  Solving for p, Initial residual = 0.005563674388, Final residual = 9.035962274e-11, No Iterations 49
time step continuity errors : sum local = 1.757054538e-14, global = 9.412441006e-17
PIMPLE: Iteration 8
DILUPBiCGStab:  Solving for Ux, Initial residual = 5.275120825e-05, Final residual = 1.504236387e-07, No Iterations 1
DILUPBiCGStab:  Solving for Uy, Initial residual = 0.0004234045618, Final residual = 1.508416289e-06, No Iterations 1
GAMG:  Solving for p, Initial residual = 0.0137506965, Final residual = 1.265086231e-08, No Iterations 29
GAMG:  Solving for p, Initial residual = 0.005621627821, Final residual = 4.892360744e-09, No Iterations 34
time step continuity errors : sum local = 9.532032774e-13, global = 1.21105393e-14
GAMG:  Solving for p, Initial residual = 0.009543684747, Final residual = 8.730098524e-09, No Iterations 29
GAMG:  Solving for p, Initial residual = 0.003934679078, Final residual = 9.318892415e-11, No Iterations 51
time step continuity errors : sum local = 1.817021213e-14, global = 5.024568246e-16
PIMPLE: Iteration 9
DILUPBiCGStab:  Solving for Ux, Initial residual = 4.244194836e-05, Final residual = 1.370462538e-07, No Iterations 1
DILUPBiCGStab:  Solving for Uy, Initial residual = 0.0003471469577, Final residual = 1.405328902e-06, No Iterations 1
GAMG:  Solving for p, Initial residual = 0.009865997221, Final residual = 9.699974557e-09, No Iterations 31
GAMG:  Solving for p, Initial residual = 0.004029492714, Final residual = 3.247155458e-09, No Iterations 36
time step continuity errors : sum local = 6.341301514e-13, global = 5.251656626e-15
GAMG:  Solving for p, Initial residual = 0.006858672425, Final residual = 6.737242885e-09, No Iterations 31
GAMG:  Solving for p, Initial residual = 0.002803601423, Final residual = 9.597506593e-11, No Iterations 50
time step continuity errors : sum local = 1.87456444e-14, global = -4.384482366e-17
PIMPLE: Iteration 10
DILUPBiCGStab:  Solving for Ux, Initial residual = 3.618279188e-05, Final residual = 1.286321934e-07, No Iterations 1
DILUPBiCGStab:  Solving for Uy, Initial residual = 0.0002998855785, Final residual = 7.113611341e-07, No Iterations 2
GAMG:  Solving for p, Initial residual = 0.007348587791, Final residual = 6.897947146e-09, No Iterations 31
GAMG:  Solving for p, Initial residual = 0.002954428226, Final residual = 2.888875376e-09, No Iterations 35
time step continuity errors : sum local = 5.643049776e-13, global = 2.827722454e-17
GAMG:  Solving for p, Initial residual = 0.005103439717, Final residual = 4.985929316e-09, No Iterations 31
GAMG:  Solving for p, Initial residual = 0.002043747386, Final residual = 8.171599577e-11, No Iterations 49
time step continuity errors : sum local = 1.596065212e-14, global = -5.91024417e-17, cumulative = 5.210242843e-14
ExecutionTime = 13.610529 s  ClockTime = 14 s

[...]
DILUPBiCGStab:  Solving for Uy, Initial residual = 5.54650525e-06, Final residual = 1.596677124e-07, No Iterations 1
GAMG:  Solving for p, Initial residual = 0.0005402232088, Final residual = 5.121950577e-10, No Iterations 31
GAMG:  Solving for p, Initial residual = 0.0001439044913, Final residual = 1.429830007e-10, No Iterations 38
time step continuity errors : sum local = 1.959958989e-14, global = -6.528333914e-17
GAMG:  Solving for p, Initial residual = 0.00035608201, Final residual = 3.231682573e-10, No Iterations 31
GAMG:  Solving for p, Initial residual = 9.787428991e-05, Final residual = 9.096901956e-11, No Iterations 37
time step continuity errors : sum local = 1.247144047e-14, global = -3.94675654e-17
PIMPLE: Iteration 9
DILUPBiCGStab:  Solving for Ux, Initial residual = 5.544478188e-07, Final residual = 5.544478188e-07, No Iterations 0
DILUPBiCGStab:  Solving for Uy, Initial residual = 3.512568021e-06, Final residual = 1.112715591e-07, No Iterations 1
GAMG:  Solving for p, Initial residual = 0.000358924867, Final residual = 3.010277161e-10, No Iterations 35
GAMG:  Solving for p, Initial residual = 8.684075926e-05, Final residual = 9.94315455e-11, No Iterations 38
time step continuity errors : sum local = 1.363058871e-14, global = -4.795351601e-17
GAMG:  Solving for p, Initial residual = 0.0002349112157, Final residual = 1.86554183e-10, No Iterations 34
GAMG:  Solving for p, Initial residual = 5.753938967e-05, Final residual = 9.183980722e-11, No Iterations 35
time step continuity errors : sum local = 1.259100109e-14, global = -4.174762616e-17
PIMPLE: Iteration 10
DILUPBiCGStab:  Solving for Ux, Initial residual = 3.917482485e-07, Final residual = 3.917482485e-07, No Iterations 0
DILUPBiCGStab:  Solving for Uy, Initial residual = 2.18372002e-06, Final residual = 7.825424436e-08, No Iterations 1
GAMG:  Solving for p, Initial residual = 0.0002425727074, Final residual = 1.975697656e-10, No Iterations 36
GAMG:  Solving for p, Initial residual = 5.378029133e-05, Final residual = 9.568408765e-11, No Iterations 35
time step continuity errors : sum local = 1.311566886e-14, global = -4.628707111e-17
GAMG:  Solving for p, Initial residual = 0.0001604221738, Final residual = 1.473892149e-10, No Iterations 33
GAMG:  Solving for p, Initial residual = 3.458365278e-05, Final residual = 8.191350493e-11, No Iterations 31
time step continuity errors : sum local = 1.122927875e-14, global = -3.777244417e-17, cumulative = 4.26804498e-14
ExecutionTime = 273.530373 s  ClockTime = 274 s

Courant Number mean: 0.4048185756 max: 355.2860295
Time = 4.975s

PIMPLE: Iteration 1
DILUPBiCGStab:  Solving for Ux, Initial residual = 0.000281732375, Final residual = 2.316597086e-06, No Iterations 1
DILUPBiCGStab:  Solving for Uy, Initial residual = 0.001557995151, Final residual = 1.650310814e-07, No Iterations 1
GAMG:  Solving for p, Initial residual = 0.003098985731, Final residual = 2.518118763e-09, No Iterations 34
GAMG:  Solving for p, Initial residual = 0.001120875897, Final residual = 8.86762402e-10, No Iterations 28
time step continuity errors : sum local = 1.215736154e-13, global = -4.777178123e-16
GAMG:  Solving for p, Initial residual = 0.002020200888, Final residual = 1.640154645e-09, No Iterations 31
GAMG:  Solving for p, Initial residual = 0.0007547331724, Final residual = 8.919845257e-11, No Iterations 34
time step continuity errors : sum local = 1.221672539e-14, global = -4.150540831e-17
PIMPLE: Iteration 2
DILUPBiCGStab:  Solving for Ux, Initial residual = 0.0001028669481, Final residual = 9.628373372e-07, No Iterations 1
DILUPBiCGStab:  Solving for Uy, Initial residual = 0.0005758666644, Final residual = 8.590224461e-08, No Iterations 1
GAMG:  Solving for p, Initial residual = 0.002902815268, Final residual = 2.40113879e-09, No Iterations 32
GAMG:  Solving for p, Initial residual = 0.0009027029039, Final residual = 8.275224985e-10, No Iterations 26
time step continuity errors : sum local = 1.133916183e-13, global = -2.747172125e-16
GAMG:  Solving for p, Initial residual = 0.001987458733, Final residual = 1.89128755e-09, No Iterations 29
GAMG:  Solving for p, Initial residual = 0.0006206442519, Final residual = 8.743997656e-11, No Iterations 36
time step continuity errors : sum local = 1.197757745e-14, global = -2.594469234e-17
PIMPLE: Iteration 3
DILUPBiCGStab:  Solving for Ux, Initial residual = 3.822039399e-05, Final residual = 4.21468183e-07, No Iterations 1
DILUPBiCGStab:  Solving for Uy, Initial residual = 0.0002172696471, Final residual = 5.569497393e-08, No Iterations 1
GAMG:  Solving for p, Initial residual = 0.002854831237, Final residual = 2.283570099e-09, No Iterations 28
GAMG:  Solving for p, Initial residual = 0.0007117595133, Final residual = 5.739638249e-10, No Iterations 34
time step continuity errors : sum local = 7.852816869e-14, global = 2.84693052e-16
GAMG:  Solving for p, Initial residual = 0.001935779784, Final residual = 1.699177304e-09, No Iterations 27
GAMG:  Solving for p, Initial residual = 0.0004940717337, Final residual = 8.501195011e-11, No Iterations 40
time step continuity errors : sum local = 1.163516257e-14, global = 4.46376076e-17
PIMPLE: Iteration 4
DILUPBiCGStab:  Solving for Ux, Initial residual = 1.456104752e-05, Final residual = 1.927692859e-07, No Iterations 1
DILUPBiCGStab:  Solving for Uy, Initial residual = 8.321794868e-05, Final residual = 3.835087957e-08, No Iterations 1
GAMG:  Solving for p, Initial residual = 0.002511809362, Final residual = 2.502246334e-09, No Iterations 33
GAMG:  Solving for p, Initial residual = 0.0006806685301, Final residual = 5.836114476e-10, No Iterations 34
time step continuity errors : sum local = 7.978203338e-14, global = 3.196408612e-16
GAMG:  Solving for p, Initial residual = 0.00168007377, Final residual = 1.469935021e-09, No Iterations 33
GAMG:  Solving for p, Initial residual = 0.0004660346613, Final residual = 8.299259809e-11, No Iterations 40
time step continuity errors : sum local = 1.1352363e-14, global = 4.819268678e-17
PIMPLE: Iteration 5
DILUPBiCGStab:  Solving for Ux, Initial residual = 5.794947664e-06, Final residual = 9.111714392e-08, No Iterations 1
DILUPBiCGStab:  Solving for Uy, Initial residual = 3.262104662e-05, Final residual = 5.697440126e-07, No Iterations 1
GAMG:  Solving for p, Initial residual = 0.001860088516, Final residual = 1.776191637e-09, No Iterations 35
GAMG:  Solving for p, Initial residual = 0.0005663851154, Final residual = 4.656239482e-10, No Iterations 33
time step continuity errors : sum local = 6.367235832e-14, global = 2.677989645e-16
GAMG:  Solving for p, Initial residual = 0.001249616073, Final residual = 1.036408188e-09, No Iterations 35
GAMG:  Solving for p, Initial residual = 0.0003876787255, Final residual = 8.44266161e-11, No Iterations 38
time step continuity errors : sum local = 1.155106676e-14, global = 4.909181407e-17
PIMPLE: Iteration 6
DILUPBiCGStab:  Solving for Ux, Initial residual = 2.590500039e-06, Final residual = 4.659180669e-08, No Iterations 1
DILUPBiCGStab:  Solving for Uy, Initial residual = 1.452945808e-05, Final residual = 2.874113139e-07, No Iterations 1
GAMG:  Solving for p, Initial residual = 0.001238616112, Final residual = 9.861091869e-10, No Iterations 34
GAMG:  Solving for p, Initial residual = 0.0003975869692, Final residual = 3.973878126e-10, No Iterations 29
time step continuity errors : sum local = 5.438758964e-14, global = 2.077547023e-16
GAMG:  Solving for p, Initial residual = 0.0008412336569, Final residual = 8.1581365e-10, No Iterations 31
GAMG:  Solving for p, Initial residual = 0.0002732013665, Final residual = 9.788949955e-11, No Iterations 33
time step continuity errors : sum local = 1.340118615e-14, global = 5.094270816e-17
PIMPLE: Iteration 7
DILUPBiCGStab:  Solving for Ux, Initial residual = 1.389890916e-06, Final residual = 2.874110495e-08, No Iterations 1
DILUPBiCGStab:  Solving for Uy, Initial residual = 8.364714988e-06, Final residual = 2.070074056e-07, No Iterations 1
GAMG:  Solving for p, Initial residual = 0.0008114488931, Final residual = 7.105343657e-10, No Iterations 28
GAMG:  Solving for p, Initial residual = 0.000245896113, Final residual = 2.005062332e-10, No Iterations 33
time step continuity errors : sum local = 2.746308721e-14, global = 6.927970787e-17
GAMG:  Solving for p, Initial residual = 0.0005497620611, Final residual = 4.514763927e-10, No Iterations 27
GAMG:  Solving for p, Initial residual = 0.0001702738815, Final residual = 9.327883181e-11, No Iterations 35
time step continuity errors : sum local = 1.27778637e-14, global = 2.320888343e-17
PIMPLE: Iteration 8
DILUPBiCGStab:  Solving for Ux, Initial residual = 8.368540539e-07, Final residual = 8.368540539e-07, No Iterations 0
DILUPBiCGStab:  Solving for Uy, Initial residual = 5.531559209e-06, Final residual = 1.589632817e-07, No Iterations 1
GAMG:  Solving for p, Initial residual = 0.0005447460672, Final residual = 4.987332665e-10, No Iterations 31
GAMG:  Solving for p, Initial residual = 0.0001439965605, Final residual = 1.42862384e-10, No Iterations 38
time step continuity errors : sum local = 1.957118083e-14, global = -6.526399744e-17
GAMG:  Solving for p, Initial residual = 0.0003590798325, Final residual = 3.149288462e-10, No Iterations 31
GAMG:  Solving for p, Initial residual = 9.794405826e-05, Final residual = 9.081444578e-11, No Iterations 37
time step continuity errors : sum local = 1.244280198e-14, global = -3.938353727e-17
PIMPLE: Iteration 9
DILUPBiCGStab:  Solving for Ux, Initial residual = 5.522109245e-07, Final residual = 5.522109245e-07, No Iterations 0
DILUPBiCGStab:  Solving for Uy, Initial residual = 3.501975721e-06, Final residual = 1.107851589e-07, No Iterations 1
GAMG:  Solving for p, Initial residual = 0.0003619509027, Final residual = 2.963835366e-10, No Iterations 35
GAMG:  Solving for p, Initial residual = 8.700701127e-05, Final residual = 9.876971018e-11, No Iterations 38
time step continuity errors : sum local = 1.353133037e-14, global = -4.784381836e-17
GAMG:  Solving for p, Initial residual = 0.0002371040615, Final residual = 2.321950533e-10, No Iterations 33
GAMG:  Solving for p, Initial residual = 5.761772068e-05, Final residual = 9.092006351e-11, No Iterations 35
time step continuity errors : sum local = 1.245722247e-14, global = -4.156996263e-17
PIMPLE: Iteration 10
DILUPBiCGStab:  Solving for Ux, Initial residual = 3.897912887e-07, Final residual = 3.897912887e-07, No Iterations 0
DILUPBiCGStab:  Solving for Uy, Initial residual = 2.17842187e-06, Final residual = 7.801080848e-08, No Iterations 1
GAMG:  Solving for p, Initial residual = 0.0002450361422, Final residual = 1.967144857e-10, No Iterations 36
GAMG:  Solving for p, Initial residual = 5.39034326e-05, Final residual = 9.450535037e-11, No Iterations 35
time step continuity errors : sum local = 1.294611728e-14, global = -4.582620661e-17
GAMG:  Solving for p, Initial residual = 0.0001620714227, Final residual = 1.469332017e-10, No Iterations 33
GAMG:  Solving for p, Initial residual = 3.470928827e-05, Final residual = 8.002785535e-11, No Iterations 31
time step continuity errors : sum local = 1.096401925e-14, global = -3.724570379e-17, cumulative = 4.26432041e-14
ExecutionTime = 274.840394 s  ClockTime = 275 s

Courant Number mean: 0.4048375802 max: 355.2011068
Time = 5s

PIMPLE: Iteration 1
DILUPBiCGStab:  Solving for Ux, Initial residual = 0.0002817390295, Final residual = 2.308791063e-06, No Iterations 1
DILUPBiCGStab:  Solving for Uy, Initial residual = 0.001551686853, Final residual = 1.651499951e-07, No Iterations 1
GAMG:  Solving for p, Initial residual = 0.003155535292, Final residual = 3.139717318e-09, No Iterations 33
GAMG:  Solving for p, Initial residual = 0.001097048003, Final residual = 8.541802663e-10, No Iterations 28
time step continuity errors : sum local = 1.170245877e-13, global = -4.489830163e-16
GAMG:  Solving for p, Initial residual = 0.002055969824, Final residual = 1.618143188e-09, No Iterations 31
GAMG:  Solving for p, Initial residual = 0.0007376598004, Final residual = 9.370167737e-11, No Iterations 34
time step continuity errors : sum local = 1.282422714e-14, global = -4.272895298e-17
PIMPLE: Iteration 2
DILUPBiCGStab:  Solving for Ux, Initial residual = 0.0001028333004, Final residual = 9.596063701e-07, No Iterations 1
DILUPBiCGStab:  Solving for Uy, Initial residual = 0.0005734141486, Final residual = 8.627574399e-08, No Iterations 1
GAMG:  Solving for p, Initial residual = 0.002925968877, Final residual = 2.38299069e-09, No Iterations 32
GAMG:  Solving for p, Initial residual = 0.0008951686505, Final residual = 7.095470167e-10, No Iterations 27
time step continuity errors : sum local = 9.715613104e-14, global = -2.290722127e-16
GAMG:  Solving for p, Initial residual = 0.002003297266, Final residual = 1.893575264e-09, No Iterations 29
GAMG:  Solving for p, Initial residual = 0.0006157284738, Final residual = 7.845566812e-11, No Iterations 37
time step continuity errors : sum local = 1.07395385e-14, global = -1.971715926e-17
PIMPLE: Iteration 3
DILUPBiCGStab:  Solving for Ux, Initial residual = 3.819489433e-05, Final residual = 4.198801716e-07, No Iterations 1
DILUPBiCGStab:  Solving for Uy, Initial residual = 0.0002164020633, Final residual = 5.613035774e-08, No Iterations 1
GAMG:  Solving for p, Initial residual = 0.002875022763, Final residual = 2.240924518e-09, No Iterations 28
GAMG:  Solving for p, Initial residual = 0.0007084934777, Final residual = 7.064753493e-10, No Iterations 33
time step continuity errors : sum local = 9.658954493e-14, global = 3.459489526e-16
GAMG:  Solving for p, Initial residual = 0.001948698902, Final residual = 1.656177836e-09, No Iterations 27
GAMG:  Solving for p, Initial residual = 0.0004915544296, Final residual = 8.340695937e-11, No Iterations 40
time step continuity errors : sum local = 1.140739476e-14, global = 4.386148688e-17
PIMPLE: Iteration 4
DILUPBiCGStab:  Solving for Ux, Initial residual = 1.454482349e-05, Final residual = 1.920278908e-07, No Iterations 1
DILUPBiCGStab:  Solving for Uy, Initial residual = 8.289403519e-05, Final residual = 3.864047618e-08, No Iterations 1
GAMG:  Solving for p, Initial residual = 0.00252823597, Final residual = 2.48489714e-09, No Iterations 33
GAMG:  Solving for p, Initial residual = 0.0006780568579, Final residual = 5.663334265e-10, No Iterations 34
time step continuity errors : sum local = 7.736593937e-14, global = 3.113809205e-16
GAMG:  Solving for p, Initial residual = 0.001690696564, Final residual = 1.46874278e-09, No Iterations 33
GAMG:  Solving for p, Initial residual = 0.0004644468878, Final residual = 8.103263441e-11, No Iterations 40
time step continuity errors : sum local = 1.107653047e-14, global = 4.701259256e-17
PIMPLE: Iteration 5
DILUPBiCGStab:  Solving for Ux, Initial residual = 5.783334735e-06, Final residual = 9.079189741e-08, No Iterations 1
DILUPBiCGStab:  Solving for Uy, Initial residual = 3.247456518e-05, Final residual = 5.642795405e-07, No Iterations 1
GAMG:  Solving for p, Initial residual = 0.001871678572, Final residual = 1.791785139e-09, No Iterations 35
GAMG:  Solving for p, Initial residual = 0.0005643115412, Final residual = 5.606958355e-10, No Iterations 32
time step continuity errors : sum local = 7.661908175e-14, global = 3.215455589e-16
GAMG:  Solving for p, Initial residual = 0.001257202809, Final residual = 1.221270595e-09, No Iterations 34
GAMG:  Solving for p, Initial residual = 0.00038636294, Final residual = 8.240878846e-11, No Iterations 38
time step continuity errors : sum local = 1.126691529e-14, global = 4.79721723e-17
PIMPLE: Iteration 6
DILUPBiCGStab:  Solving for Ux, Initial residual = 2.583608038e-06, Final residual = 4.645825858e-08, No Iterations 1
DILUPBiCGStab:  Solving for Uy, Initial residual = 1.448762976e-05, Final residual = 2.858126911e-07, No Iterations 1
GAMG:  Solving for p, Initial residual = 0.001248064104, Final residual = 1.22180047e-09, No Iterations 33
GAMG:  Solving for p, Initial residual = 0.0003959204151, Final residual = 3.889845286e-10, No Iterations 29
time step continuity errors : sum local = 5.319946169e-14, global = 2.015791639e-16
GAMG:  Solving for p, Initial residual = 0.0008474657878, Final residual = 8.08697053e-10, No Iterations 31
GAMG:  Solving for p, Initial residual = 0.000272087062, Final residual = 9.652983456e-11, No Iterations 33
time step continuity errors : sum local = 1.320567601e-14, global = 4.977973699e-17
PIMPLE: Iteration 7
DILUPBiCGStab:  Solving for Ux, Initial residual = 1.385880713e-06, Final residual = 2.867770008e-08, No Iterations 1
DILUPBiCGStab:  Solving for Uy, Initial residual = 8.354323299e-06, Final residual = 2.060563652e-07, No Iterations 1
GAMG:  Solving for p, Initial residual = 0.0008186853966, Final residual = 7.221276552e-10, No Iterations 28
GAMG:  Solving for p, Initial residual = 0.0002447573462, Final residual = 2.002465661e-10, No Iterations 33
time step continuity errors : sum local = 2.740771945e-14, global = 6.86110657e-17
GAMG:  Solving for p, Initial residual = 0.0005544607229, Final residual = 4.62339232e-10, No Iterations 27
GAMG:  Solving for p, Initial residual = 0.000169417772, Final residual = 9.148533737e-11, No Iterations 35
time step continuity errors : sum local = 1.252330742e-14, global = 2.403816003e-17
PIMPLE: Iteration 8
DILUPBiCGStab:  Solving for Ux, Initial residual = 8.338160025e-07, Final residual = 8.338160025e-07, No Iterations 0
DILUPBiCGStab:  Solving for Uy, Initial residual = 5.517287653e-06, Final residual = 1.581480625e-07, No Iterations 1
GAMG:  Solving for p, Initial residual = 0.0005495290286, Final residual = 4.884288132e-10, No Iterations 31
GAMG:  Solving for p, Initial residual = 0.0001429623535, Final residual = 1.427664956e-10, No Iterations 38
time step continuity errors : sum local = 1.954385866e-14, global = -6.527090299e-17
GAMG:  Solving for p, Initial residual = 0.0003626203236, Final residual = 3.082229592e-10, No Iterations 31
GAMG:  Solving for p, Initial residual = 9.709049057e-05, Final residual = 9.068058774e-11, No Iterations 37
time step continuity errors : sum local = 1.241530708e-14, global = -3.949363135e-17
PIMPLE: Iteration 9
DILUPBiCGStab:  Solving for Ux, Initial residual = 5.498717233e-07, Final residual = 5.498717233e-07, No Iterations 0
DILUPBiCGStab:  Solving for Uy, Initial residual = 3.491313131e-06, Final residual = 1.102433797e-07, No Iterations 1
GAMG:  Solving for p, Initial residual = 0.0003654000437, Final residual = 2.918387385e-10, No Iterations 35
GAMG:  Solving for p, Initial residual = 8.620060064e-05, Final residual = 9.813567645e-11, No Iterations 38
time step continuity errors : sum local = 1.343493482e-14, global = -4.740416564e-17
GAMG:  Solving for p, Initial residual = 0.0002395796899, Final residual = 2.282481279e-10, No Iterations 33
GAMG:  Solving for p, Initial residual = 5.705277239e-05, Final residual = 9.002855524e-11, No Iterations 35
time step continuity errors : sum local = 1.232590156e-14, global = -4.129301555e-17
PIMPLE: Iteration 10
DILUPBiCGStab:  Solving for Ux, Initial residual = 3.878048898e-07, Final residual = 3.878048898e-07, No Iterations 0
DILUPBiCGStab:  Solving for Uy, Initial residual = 2.172096659e-06, Final residual = 7.769762499e-08, No Iterations 1
GAMG:  Solving for p, Initial residual = 0.000247529021, Final residual = 2.469672672e-10, No Iterations 35
GAMG:  Solving for p, Initial residual = 5.343499243e-05, Final residual = 9.338258159e-11, No Iterations 35
time step continuity errors : sum local = 1.278305882e-14, global = -4.542978843e-17
GAMG:  Solving for p, Initial residual = 0.0001637406857, Final residual = 1.464069105e-10, No Iterations 33
GAMG:  Solving for p, Initial residual = 3.443841367e-05, Final residual = 9.868791465e-11, No Iterations 30
time step continuity errors : sum local = 1.351033589e-14, global = -4.548048046e-17, cumulative = 4.259772362e-14
ExecutionTime = 276.129993 s  ClockTime = 276 s

End

Finalising parallel run
